
#######################################################################
#
#                 Cambridge Crystallographic Data Centre
#                                CCDC 
#
#######################################################################
#
# If this CIF has been generated from an entry in the Cambridge 
# Structural Database, then it will include bibliographic, chemical, 
# crystal, experimental, refinement or atomic coordinate data resulting 
# from the CCDC's data processing and validation procedures.
#
#######################################################################

data_I
_chemical_formula_moiety         'C40 H32'
_cell_length_a                   1
_cell_length_b                   1
_cell_length_c                   1
_cell_angle_alpha                90
_cell_angle_beta                 90
_cell_angle_gamma                90
_cell_volume                     1
loop_
_atom_site_label
_atom_site_type_symbol
_atom_site_fract_x
_atom_site_fract_y
_atom_site_fract_z
C(1) C 7.30827(10) 1.21520(10) 9.1614(1)
C(2) C 7.01096(7) 0.25408(8) 10.17410(2)
C(3) C 6.29595(10) -0.84574(10) 9.6111(1)
C(4) C 5.50779(4) -1.43499(4) 7.35247(2)
C(5) C 5.30453(10) -1.23468(10) 5.9661(1)
C(6) C 5.69599(5) -0.19311(6) 5.17044(1)
C(7) C 6.37251(10) 0.95257(10) 5.4907(1)
C(8) C 6.88291(4) 1.37839(4) 6.73981(2)
C(9) C 6.78852(4) 0.72523(3) 7.96111(2)
C(10) C 6.15232(3) -0.59025(5) 8.24575(2)
H(1) H 7.83657 2.14593 9.2969
H(2) H 7.28442 0.34668 11.21364
H(3) H 5.94271 -1.71745 10.1395
H(4) H 5.10492 -2.35385 7.76761
H(5) H 4.76843 -2.02966 5.4573
H(6) H 5.42083 -0.28636 4.12416
H(7) H 6.55581 1.62892 4.6610
H(8) H 7.39686 2.33485 6.74678
C(1)_2 C 2.87394(10) 4.16615(10) -1.5913(1)
C(2)_2 C 3.17125(7) 3.20503(8) -2.60392(2)
C(3)_2 C 3.88626(10) 2.10521(10) -2.0409(1)
C(4)_2 C 4.67442(4) 1.51596(4) 0.21772(2)
C(5)_2 C 4.87767(10) 1.71627(10) 1.6041(1)
C(6)_2 C 4.48622(5) 2.75784(6) 2.39975(1)
C(7)_2 C 3.80970(10) 3.90352(10) 2.0795(1)
C(8)_2 C 3.29930(4) 4.32934(4) 0.83037(2)
C(9)_2 C 3.39369(4) 3.67618(3) -0.39092(2)
C(10)_2 C 4.02989(3) 2.36070(5) -0.67556(2)
H(1)_2 H 2.34564 5.09688 -1.7268
H(2)_2 H 2.89778 3.29763 -3.64345
H(3)_2 H 4.23950 1.23350 -2.5693
H(4)_2 H 5.07729 0.59710 -0.19743
H(5)_2 H 5.41378 0.92129 2.1128
H(6)_2 H 4.76138 2.66459 3.44602
H(7)_2 H 3.62640 4.57987 2.9092
H(8)_2 H 2.78535 5.28580 0.82341
C(1)_3 C -0.98376(10) 4.68670(10) -1.5913(1)
C(2)_3 C -0.68645(7) 5.64782(8) -2.60392(2)
C(3)_3 C 0.02856(10) 6.74764(10) -2.0409(1)
C(4)_3 C 0.81672(4) 7.33689(4) 0.21772(2)
C(5)_3 C 1.01997(10) 7.13658(10) 1.6041(1)
C(6)_3 C 0.62852(5) 6.09501(6) 2.39975(1)
C(7)_3 C -0.04800(10) 4.94933(10) 2.0795(1)
C(8)_3 C -0.55840(4) 4.52351(4) 0.83037(2)
C(9)_3 C -0.46401(4) 5.17667(3) -0.39092(2)
C(10)_3 C 0.17219(3) 6.49215(5) -0.67556(2)
H(1)_3 H -1.51206 3.75597 -1.7268
H(2)_3 H -0.95992 5.55522 -3.64345
H(3)_3 H 0.38180 7.61935 -2.5693
H(4)_3 H 1.21959 8.25575 -0.19743
H(5)_3 H 1.55608 7.93156 2.1128
H(6)_3 H 0.90368 6.18826 3.44602
H(7)_3 H -0.23130 4.27298 2.9092
H(8)_3 H -1.07235 3.56705 0.82341
C(1)_4 C 3.45057(10) 1.73575(10) 9.1614(1)
C(2)_4 C 3.15326(7) 2.69687(8) 10.17410(2)
C(3)_4 C 2.43825(10) 3.79669(10) 9.6111(1)
C(4)_4 C 1.65009(4) 4.38594(4) 7.35247(2)
C(5)_4 C 1.44683(10) 4.18563(10) 5.9661(1)
C(6)_4 C 1.83829(5) 3.14406(6) 5.17044(1)
C(7)_4 C 2.51481(10) 1.99838(10) 5.4907(1)
C(8)_4 C 3.02521(4) 1.57256(4) 6.73981(2)
C(9)_4 C 2.93082(4) 2.22572(3) 7.96111(2)
C(10)_4 C 2.29462(3) 3.54120(5) 8.24575(2)
H(1)_4 H 3.97887 0.80502 9.2969
H(2)_4 H 3.42672 2.60427 11.21364
H(3)_4 H 2.08501 4.66840 10.1395
H(4)_4 H 1.24722 5.30480 7.76761
H(5)_4 H 0.91073 4.98061 5.4573
H(6)_4 H 1.56313 3.23731 4.12416
H(7)_4 H 2.69811 1.32203 4.6610
H(8)_4 H 3.53916 0.61610 6.74678
loop_
_geom_bond_atom_site_label_1
_geom_bond_atom_site_label_2
_geom_bond_site_symmetry_1
_geom_bond_site_symmetry_2
C(1) C(2) 1_555 1_555
C(1) C(9) 1_555 1_555
C(1) H(1) 1_555 1_555
C(2) C(3) 1_555 1_555
C(2) H(2) 1_555 1_555
C(3) C(10) 1_555 1_555
C(3) H(3) 1_555 1_555
C(4) C(5) 1_555 1_555
C(4) C(10) 1_555 1_555
C(4) H(4) 1_555 1_555
C(5) C(6) 1_555 1_555
C(5) H(5) 1_555 1_555
C(6) C(7) 1_555 1_555
C(6) H(6) 1_555 1_555
C(7) C(8) 1_555 1_555
C(7) H(7) 1_555 1_555
C(8) C(9) 1_555 1_555
C(8) H(8) 1_555 1_555
C(9) C(10) 1_555 1_555
C(1)_2 C(2)_2 1_555 1_555
C(1)_2 C(9)_2 1_555 1_555
C(1)_2 H(1)_2 1_555 1_555
C(2)_2 C(3)_2 1_555 1_555
C(2)_2 H(2)_2 1_555 1_555
C(3)_2 C(10)_2 1_555 1_555
C(3)_2 H(3)_2 1_555 1_555
C(4)_2 C(5)_2 1_555 1_555
C(4)_2 C(10)_2 1_555 1_555
C(4)_2 H(4)_2 1_555 1_555
C(5)_2 C(6)_2 1_555 1_555
C(5)_2 H(5)_2 1_555 1_555
C(6)_2 C(7)_2 1_555 1_555
C(6)_2 H(6)_2 1_555 1_555
C(7)_2 C(8)_2 1_555 1_555
C(7)_2 H(7)_2 1_555 1_555
C(8)_2 C(9)_2 1_555 1_555
C(8)_2 H(8)_2 1_555 1_555
C(9)_2 C(10)_2 1_555 1_555
C(1)_3 C(2)_3 1_555 1_555
C(1)_3 C(9)_3 1_555 1_555
C(1)_3 H(1)_3 1_555 1_555
C(2)_3 C(3)_3 1_555 1_555
C(2)_3 H(2)_3 1_555 1_555
C(3)_3 C(10)_3 1_555 1_555
C(3)_3 H(3)_3 1_555 1_555
C(4)_3 C(5)_3 1_555 1_555
C(4)_3 C(10)_3 1_555 1_555
C(4)_3 H(4)_3 1_555 1_555
C(5)_3 C(6)_3 1_555 1_555
C(5)_3 H(5)_3 1_555 1_555
C(6)_3 C(7)_3 1_555 1_555
C(6)_3 H(6)_3 1_555 1_555
C(7)_3 C(8)_3 1_555 1_555
C(7)_3 H(7)_3 1_555 1_555
C(8)_3 C(9)_3 1_555 1_555
C(8)_3 H(8)_3 1_555 1_555
C(9)_3 C(10)_3 1_555 1_555
C(1)_4 C(2)_4 1_555 1_555
C(1)_4 C(9)_4 1_555 1_555
C(1)_4 H(1)_4 1_555 1_555
C(2)_4 C(3)_4 1_555 1_555
C(2)_4 H(2)_4 1_555 1_555
C(3)_4 C(10)_4 1_555 1_555
C(3)_4 H(3)_4 1_555 1_555
C(4)_4 C(5)_4 1_555 1_555
C(4)_4 C(10)_4 1_555 1_555
C(4)_4 H(4)_4 1_555 1_555
C(5)_4 C(6)_4 1_555 1_555
C(5)_4 H(5)_4 1_555 1_555
C(6)_4 C(7)_4 1_555 1_555
C(6)_4 H(6)_4 1_555 1_555
C(7)_4 C(8)_4 1_555 1_555
C(7)_4 H(7)_4 1_555 1_555
C(8)_4 C(9)_4 1_555 1_555
C(8)_4 H(8)_4 1_555 1_555
C(9)_4 C(10)_4 1_555 1_555

#END
