
#######################################################################
#
#                 Cambridge Crystallographic Data Centre
#                                CCDC 
#
#######################################################################
#
# If this CIF has been generated from an entry in the Cambridge 
# Structural Database, then it will include bibliographic, chemical, 
# crystal, experimental, refinement or atomic coordinate data resulting 
# from the CCDC's data processing and validation procedures.
#
#######################################################################

data_TM022
_chemical_formula_moiety         'C234 H126 S18'
_cell_length_a                   1
_cell_length_b                   1
_cell_length_c                   1
_cell_angle_alpha                90
_cell_angle_beta                 90
_cell_angle_gamma                90
_cell_volume                     1
loop_
_atom_site_label
_atom_site_type_symbol
_atom_site_fract_x
_atom_site_fract_y
_atom_site_fract_z
S1 S 7.43982(5) 0.88332(15) 7.65984(3)
C1 C 9.49322(18) 1.2478(6) 9.51325(14)
C2 C 8.17657(18) 1.3977(6) 9.16602(13)
C3 C 7.23333(17) 2.0009(6) 10.04858(13)
C4 C 7.66909(18) 2.4554(6) 11.27593(13)
C5 C 9.01810(18) 2.3149(6) 11.67080(13)
C6 C 9.49138(19) 2.7785(6) 12.92868(14)
C7 C 10.8039(2) 2.6554(7) 13.27643(15)
C8 C 11.7187(2) 2.0644(7) 12.38916(16)
C9 C 11.30220(19) 1.6013(7) 11.17542(14)
C10 C 9.94854(18) 1.7129(6) 10.77079(13)
C11 C 5.86461(18) 1.4585(6) 8.17929(13)
C12 C 5.90170(17) 2.0415(6) 9.46405(12)
C13 C 4.73141(18) 2.5654(6) 10.01107(13)
H1 H 10.0869 0.8411 8.9233
H4 H 7.0638 2.8613 11.8530
H6 H 8.8963 3.1726 13.5246
H7 H 11.0943 2.9635 14.1039
H8 H 12.6141 1.9887 12.6312
H9 H 11.9181 1.2048 10.6019
H13 H 4.7349 2.9588 10.8531
S1_2 S 1.98652(5) 3.06168(15) 9.78894(3)
C1_2 C -0.06688(18) 2.6972(6) 7.93553(14)
C2_2 C 1.24977(18) 2.5473(6) 8.28276(13)
C3_2 C 2.19301(17) 1.9441(6) 7.40021(13)
C4_2 C 1.75725(18) 1.4896(6) 6.17286(13)
C5_2 C 0.40824(18) 1.6301(6) 5.77799(13)
C6_2 C -0.06503(19) 1.1665(6) 4.52011(14)
C7_2 C -1.3776(2) 1.2896(7) 4.17235(15)
C8_2 C -2.2924(2) 1.8806(7) 5.05962(16)
C9_2 C -1.87586(19) 2.3437(7) 6.27336(14)
C10_2 C -0.52220(18) 2.2321(6) 6.67800(13)
C11_2 C 3.56173(18) 2.4865(6) 9.26949(13)
C12_2 C 3.52465(17) 1.9035(6) 7.98474(12)
C13_2 C 4.69493(18) 1.3796(6) 7.43772(13)
H1_2 H -0.6606 3.1039 8.5255
H4_2 H 2.3626 1.0837 5.5958
H6_2 H 0.5301 0.7724 3.9242
H7_2 H -1.6680 0.9815 3.3449
H8_2 H -3.1878 1.9563 4.8176
H9_2 H -2.4918 2.7402 6.8469
H13_2 H 4.6915 0.9862 6.5956
S1_3 S -2.72665(5) -1.08918(15) 1.06455(3)
C1_3 C -4.78005(18) -0.7247(6) -0.78886(14)
C2_3 C -3.46340(18) -0.5748(6) -0.44163(13)
C3_3 C -2.52016(17) 0.0284(6) -1.32419(13)
C4_3 C -2.95592(18) 0.4829(6) -2.55154(13)
C5_3 C -4.30493(18) 0.3424(6) -2.94640(13)
C6_3 C -4.77821(19) 0.8060(6) -4.20429(14)
C7_3 C -6.0908(2) 0.6829(7) -4.55204(15)
C8_3 C -7.0056(2) 0.0919(7) -3.66477(16)
C9_3 C -6.58903(19) -0.3712(7) -2.45103(14)
C10_3 C -5.23537(18) -0.2596(6) -2.04639(13)
C11_3 C -1.15144(18) -0.5140(6) 0.54510(13)
C12_3 C -1.18853(17) 0.0690(6) -0.73965(12)
C13_3 C -0.01824(18) 0.5929(6) -1.28667(13)
H1_3 H -5.3737 -1.1314 -0.1989
H4_3 H -2.3506 0.8888 -3.1286
H6_3 H -4.1831 1.2001 -4.8002
H7_3 H -6.3811 0.9910 -5.3795
H8_3 H -7.9010 0.0162 -3.9068
H9_3 H -7.2050 -0.7677 -1.8775
H13_3 H -0.0217 0.9862 -2.1288
S1_4 S 2.72665(5) 1.08918(15) -1.06455(3)
C1_4 C 4.78005(18) 0.7247(6) 0.78886(14)
C2_4 C 3.46340(18) 0.5748(6) 0.44163(13)
C3_4 C 2.52016(17) -0.0284(6) 1.32419(13)
C4_4 C 2.95592(18) -0.4829(6) 2.55154(13)
C5_4 C 4.30493(18) -0.3424(6) 2.94640(13)
C6_4 C 4.77821(19) -0.8060(6) 4.20429(14)
C7_4 C 6.0908(2) -0.6829(7) 4.55204(15)
C8_4 C 7.0056(2) -0.0919(7) 3.66477(16)
C9_4 C 6.58903(19) 0.3712(7) 2.45103(14)
C10_4 C 5.23537(18) 0.2596(6) 2.04639(13)
C11_4 C 1.15144(18) 0.5140(6) -0.54510(13)
C12_4 C 1.18853(17) -0.0690(6) 0.73965(12)
C13_4 C 0.01824(18) -0.5929(6) 1.28667(13)
H1_4 H 5.3737 1.1314 0.1989
H4_4 H 2.3506 -0.8888 3.1286
H6_4 H 4.1831 -1.2001 4.8002
H7_4 H 6.3811 -0.9910 5.3795
H8_4 H 7.9010 -0.0162 3.9068
H9_4 H 7.2050 0.7677 1.8775
H13_4 H 0.0217 -0.9862 2.1288
S1_5 S -5.80931(5) -1.08918(15) 18.51334(3)
C1_5 C -7.86271(18) -0.7247(6) 16.65993(14)
C2_5 C -6.54606(18) -0.5748(6) 17.00716(13)
C3_5 C -5.60282(17) 0.0284(6) 16.12460(13)
C4_5 C -6.03858(18) 0.4829(6) 14.89725(13)
C5_5 C -7.38759(18) 0.3424(6) 14.50239(13)
C6_5 C -7.86086(19) 0.8060(6) 13.24450(14)
C7_5 C -9.1734(2) 0.6829(7) 12.89675(15)
C8_5 C -10.0882(2) 0.0919(7) 13.78402(16)
C9_5 C -9.67169(19) -0.3712(7) 14.99776(14)
C10_5 C -8.31803(18) -0.2596(6) 15.40239(13)
C11_5 C -4.23409(18) -0.5140(6) 17.99389(13)
C12_5 C -4.27118(17) 0.0690(6) 16.70913(12)
C13_5 C -3.10089(18) 0.5929(6) 16.16211(13)
H1_5 H -8.4564 -1.1314 17.2499
H4_5 H -5.4333 0.8888 14.3202
H6_5 H -7.2657 1.2001 12.6486
H7_5 H -9.4638 0.9910 12.0693
H8_5 H -10.9836 0.0162 13.5420
H9_5 H -10.2876 -0.7677 15.5713
H13_5 H -3.1044 0.9863 15.3200
S1_6 S -0.35601(5) 1.08918(15) 16.38424(3)
C1_6 C 1.69739(18) 0.7247(6) 18.23765(14)
C2_6 C 0.38074(18) 0.5748(6) 17.89042(13)
C3_6 C -0.56249(17) -0.0284(6) 18.77298(13)
C4_6 C -0.12673(18) -0.4829(6) 20.00032(13)
C5_6 C 1.22228(18) -0.3424(6) 20.39519(13)
C6_6 C 1.69555(19) -0.8060(6) 21.65307(14)
C7_6 C 3.0081(2) -0.6829(7) 22.00083(15)
C8_6 C 3.9229(2) -0.0919(7) 21.11356(16)
C9_6 C 3.50637(19) 0.3712(7) 19.89982(14)
C10_6 C 2.15271(18) 0.2596(6) 19.49518(13)
C11_6 C -1.93122(18) 0.5140(6) 16.90369(13)
C12_6 C -1.89413(17) -0.0690(6) 18.18844(12)
C13_6 C -3.06442(18) -0.5929(6) 18.73546(13)
H1_6 H 2.2911 1.1314 17.6477
H4_6 H -0.7320 -0.8888 20.5774
H6_6 H 1.1004 -1.2001 22.2489
H7_6 H 3.2985 -0.9910 22.8282
H8_6 H 4.8183 -0.0162 21.3556
H9_6 H 4.1223 0.7677 19.3263
H13_6 H -3.0610 -0.9862 19.5775
S1_7 S -2.72665(5) 2.85582(15) 1.06455(3)
C1_7 C -4.78005(18) 3.2203(6) -0.78886(14)
C2_7 C -3.46340(18) 3.3702(6) -0.44163(13)
C3_7 C -2.52016(17) 3.9734(6) -1.32419(13)
C4_7 C -2.95592(18) 4.4279(6) -2.55154(13)
C5_7 C -4.30493(18) 4.2874(6) -2.94640(13)
C6_7 C -4.77821(19) 4.7510(6) -4.20429(14)
C7_7 C -6.0908(2) 4.6279(7) -4.55204(15)
C8_7 C -7.0056(2) 4.0369(7) -3.66477(16)
C9_7 C -6.58903(19) 3.5738(7) -2.45103(14)
C10_7 C -5.23537(18) 3.6854(6) -2.04639(13)
C11_7 C -1.15144(18) 3.4310(6) 0.54510(13)
C12_7 C -1.18853(17) 4.0140(6) -0.73965(12)
C13_7 C -0.01824(18) 4.5379(6) -1.28667(13)
H1_7 H -5.3737 2.8136 -0.1989
H4_7 H -2.3506 4.8338 -3.1286
H6_7 H -4.1831 5.1451 -4.8002
H7_7 H -6.3811 4.9360 -5.3795
H8_7 H -7.9010 3.9612 -3.9068
H9_7 H -7.2050 3.1773 -1.8775
H13_7 H -0.0217 4.9312 -2.1288
S1_8 S 2.72665(5) 5.03418(15) -1.06455(3)
C1_8 C 4.78005(18) 4.6697(6) 0.78886(14)
C2_8 C 3.46340(18) 4.5198(6) 0.44163(13)
C3_8 C 2.52016(17) 3.9166(6) 1.32419(13)
C4_8 C 2.95592(18) 3.4621(6) 2.55154(13)
C5_8 C 4.30493(18) 3.6026(6) 2.94640(13)
C6_8 C 4.77821(19) 3.1390(6) 4.20429(14)
C7_8 C 6.0908(2) 3.2621(7) 4.55204(15)
C8_8 C 7.0056(2) 3.8531(7) 3.66477(16)
C9_8 C 6.58903(19) 4.3162(7) 2.45103(14)
C10_8 C 5.23537(18) 4.2046(6) 2.04639(13)
C11_8 C 1.15144(18) 4.4590(6) -0.54510(13)
C12_8 C 1.18853(17) 3.8760(6) 0.73965(12)
C13_8 C 0.01824(18) 3.3521(6) 1.28667(13)
H1_8 H 5.3737 5.0764 0.1989
H4_8 H 2.3506 3.0562 3.1286
H6_8 H 4.1831 2.7449 4.8002
H7_8 H 6.3811 2.9540 5.3795
H8_8 H 7.9010 3.9288 3.9068
H9_8 H 7.2050 4.7127 1.8775
H13_8 H 0.0217 2.9587 2.1288
S1_9 S -5.80931(5) 2.85582(15) 18.51334(3)
C1_9 C -7.86271(18) 3.2203(6) 16.65993(14)
C2_9 C -6.54606(18) 3.3702(6) 17.00716(13)
C3_9 C -5.60282(17) 3.9734(6) 16.12460(13)
C4_9 C -6.03858(18) 4.4279(6) 14.89725(13)
C5_9 C -7.38759(18) 4.2874(6) 14.50239(13)
C6_9 C -7.86086(19) 4.7510(6) 13.24450(14)
C7_9 C -9.1734(2) 4.6279(7) 12.89675(15)
C8_9 C -10.0882(2) 4.0369(7) 13.78402(16)
C9_9 C -9.67169(19) 3.5738(7) 14.99776(14)
C10_9 C -8.31803(18) 3.6854(6) 15.40239(13)
C11_9 C -4.23409(18) 3.4310(6) 17.99389(13)
C12_9 C -4.27118(17) 4.0140(6) 16.70913(12)
C13_9 C -3.10089(18) 4.5379(6) 16.16211(13)
H1_9 H -8.4564 2.8136 17.2499
H4_9 H -5.4333 4.8338 14.3202
H6_9 H -7.2657 5.1451 12.6486
H7_9 H -9.4638 4.9360 12.0693
H8_9 H -10.9836 3.9612 13.5420
H9_9 H -10.2876 3.1773 15.5713
H13_9 H -3.1044 4.9312 15.3200
S1_10 S -0.35601(5) 5.03418(15) 16.38424(3)
C1_10 C 1.69739(18) 4.6697(6) 18.23765(14)
C2_10 C 0.38074(18) 4.5198(6) 17.89042(13)
C3_10 C -0.56249(17) 3.9166(6) 18.77298(13)
C4_10 C -0.12673(18) 3.4621(6) 20.00032(13)
C5_10 C 1.22228(18) 3.6026(6) 20.39519(13)
C6_10 C 1.69555(19) 3.1390(6) 21.65307(14)
C7_10 C 3.0081(2) 3.2621(7) 22.00083(15)
C8_10 C 3.9229(2) 3.8531(7) 21.11356(16)
C9_10 C 3.50637(19) 4.3162(7) 19.89982(14)
C10_10 C 2.15271(18) 4.2046(6) 19.49518(13)
C11_10 C -1.93122(18) 4.4590(6) 16.90369(13)
C12_10 C -1.89413(17) 3.8760(6) 18.18844(12)
C13_10 C -3.06442(18) 3.3521(6) 18.73546(13)
H1_10 H 2.2911 5.0764 17.6477
H4_10 H -0.7320 3.0562 20.5774
H6_10 H 1.1004 2.7449 22.2489
H7_10 H 3.2985 2.9540 22.8282
H8_10 H 4.8183 3.9288 21.3556
H9_10 H 4.1223 4.7127 19.3263
H13_10 H -3.0610 2.9587 19.5775
S1_11 S 9.78235(5) -1.08918(15) 1.06455(3)
C1_11 C 7.72895(18) -0.7247(6) -0.78886(14)
C2_11 C 9.04560(18) -0.5748(6) -0.44163(13)
C3_11 C 9.98884(17) 0.0284(6) -1.32419(13)
C4_11 C 9.55308(18) 0.4829(6) -2.55154(13)
C5_11 C 8.20407(18) 0.3424(6) -2.94640(13)
C6_11 C 7.73079(19) 0.8060(6) -4.20429(14)
C7_11 C 6.4182(2) 0.6829(7) -4.55204(15)
C8_11 C 5.5034(2) 0.0919(7) -3.66477(16)
C9_11 C 5.91997(19) -0.3712(7) -2.45103(14)
C10_11 C 7.27363(18) -0.2596(6) -2.04639(13)
C11_11 C 11.35756(18) -0.5140(6) 0.54510(13)
C12_11 C 11.32047(17) 0.0690(6) -0.73965(12)
C13_11 C 12.49076(18) 0.5929(6) -1.28667(13)
H1_11 H 7.1353 -1.1314 -0.1989
H4_11 H 10.1584 0.8888 -3.1286
H6_11 H 8.3259 1.2001 -4.8002
H7_11 H 6.1279 0.9910 -5.3795
H8_11 H 4.6080 0.0162 -3.9068
H9_11 H 5.3040 -0.7677 -1.8775
H13_11 H 12.4873 0.9862 -2.1288
S1_12 S 15.23565(5) 1.08918(15) -1.06455(3)
C1_12 C 17.28905(18) 0.7247(6) 0.78886(14)
C2_12 C 15.97240(18) 0.5748(6) 0.44163(13)
C3_12 C 15.02916(17) -0.0284(6) 1.32419(13)
C4_12 C 15.46492(18) -0.4829(6) 2.55154(13)
C5_12 C 16.81393(18) -0.3424(6) 2.94640(13)
C6_12 C 17.28721(19) -0.8060(6) 4.20429(14)
C7_12 C 18.5998(2) -0.6829(7) 4.55204(15)
C8_12 C 19.5146(2) -0.0919(7) 3.66477(16)
C9_12 C 19.09803(19) 0.3712(7) 2.45103(14)
C10_12 C 17.74437(18) 0.2596(6) 2.04639(13)
C11_12 C 13.66044(18) 0.5140(6) -0.54510(13)
C12_12 C 13.69753(17) -0.0690(6) 0.73965(12)
C13_12 C 12.52724(18) -0.5929(6) 1.28667(13)
H1_12 H 17.8827 1.1314 0.1989
H4_12 H 14.8596 -0.8888 3.1286
H6_12 H 16.6921 -1.2001 4.8002
H7_12 H 18.8901 -0.9910 5.3795
H8_12 H 20.4100 -0.0162 3.9068
H9_12 H 19.7140 0.7677 1.8775
H13_12 H 12.5307 -0.9862 2.1288
S1_13 S 6.69969(5) -1.08918(15) 18.51334(3)
C1_13 C 4.64629(18) -0.7247(6) 16.65993(14)
C2_13 C 5.96294(18) -0.5748(6) 17.00716(13)
C3_13 C 6.90618(17) 0.0284(6) 16.12460(13)
C4_13 C 6.47042(18) 0.4829(6) 14.89725(13)
C5_13 C 5.12141(18) 0.3424(6) 14.50239(13)
C6_13 C 4.64814(19) 0.8060(6) 13.24450(14)
C7_13 C 3.3356(2) 0.6829(7) 12.89675(15)
C8_13 C 2.4208(2) 0.0919(7) 13.78402(16)
C9_13 C 2.83731(19) -0.3712(7) 14.99776(14)
C10_13 C 4.19097(18) -0.2596(6) 15.40239(13)
C11_13 C 8.27491(18) -0.5140(6) 17.99389(13)
C12_13 C 8.23782(17) 0.0690(6) 16.70913(12)
C13_13 C 9.40811(18) 0.5929(6) 16.16211(13)
H1_13 H 4.0526 -1.1314 17.2499
H4_13 H 7.0757 0.8888 14.3202
H6_13 H 5.2433 1.2001 12.6486
H7_13 H 3.0452 0.9910 12.0693
H8_13 H 1.5254 0.0162 13.5420
H9_13 H 2.2214 -0.7677 15.5713
H13_13 H 9.4046 0.9863 15.3200
S1_14 S 12.15299(5) 1.08918(15) 16.38424(3)
C1_14 C 14.20639(18) 0.7247(6) 18.23765(14)
C2_14 C 12.88974(18) 0.5748(6) 17.89042(13)
C3_14 C 11.94651(17) -0.0284(6) 18.77298(13)
C4_14 C 12.38227(18) -0.4829(6) 20.00032(13)
C5_14 C 13.73128(18) -0.3424(6) 20.39519(13)
C6_14 C 14.20455(19) -0.8060(6) 21.65307(14)
C7_14 C 15.5171(2) -0.6829(7) 22.00083(15)
C8_14 C 16.4319(2) -0.0919(7) 21.11356(16)
C9_14 C 16.01537(19) 0.3712(7) 19.89982(14)
C10_14 C 14.66171(18) 0.2596(6) 19.49518(13)
C11_14 C 10.57778(18) 0.5140(6) 16.90369(13)
C12_14 C 10.61487(17) -0.0690(6) 18.18844(12)
C13_14 C 9.44458(18) -0.5929(6) 18.73546(13)
H1_14 H 14.8001 1.1314 17.6477
H4_14 H 11.7770 -0.8888 20.5774
H6_14 H 13.6094 -1.2001 22.2489
H7_14 H 15.8075 -0.9910 22.8282
H8_14 H 17.3273 -0.0162 21.3556
H9_14 H 16.6313 0.7677 19.3263
H13_14 H 9.4480 -0.9862 19.5775
S1_15 S 9.78235(5) 2.85582(15) 1.06455(3)
C1_15 C 7.72895(18) 3.2203(6) -0.78886(14)
C2_15 C 9.04560(18) 3.3702(6) -0.44163(13)
C3_15 C 9.98884(17) 3.9734(6) -1.32419(13)
C4_15 C 9.55308(18) 4.4279(6) -2.55154(13)
C5_15 C 8.20407(18) 4.2874(6) -2.94640(13)
C6_15 C 7.73079(19) 4.7510(6) -4.20429(14)
C7_15 C 6.4182(2) 4.6279(7) -4.55204(15)
C8_15 C 5.5034(2) 4.0369(7) -3.66477(16)
C9_15 C 5.91997(19) 3.5738(7) -2.45103(14)
C10_15 C 7.27363(18) 3.6854(6) -2.04639(13)
C11_15 C 11.35756(18) 3.4310(6) 0.54510(13)
C12_15 C 11.32047(17) 4.0140(6) -0.73965(12)
C13_15 C 12.49076(18) 4.5379(6) -1.28667(13)
H1_15 H 7.1353 2.8136 -0.1989
H4_15 H 10.1584 4.8338 -3.1286
H6_15 H 8.3259 5.1451 -4.8002
H7_15 H 6.1279 4.9360 -5.3795
H8_15 H 4.6080 3.9612 -3.9068
H9_15 H 5.3040 3.1773 -1.8775
H13_15 H 12.4873 4.9312 -2.1288
S1_16 S 15.23565(5) 5.03418(15) -1.06455(3)
C1_16 C 17.28905(18) 4.6697(6) 0.78886(14)
C2_16 C 15.97240(18) 4.5198(6) 0.44163(13)
C3_16 C 15.02916(17) 3.9166(6) 1.32419(13)
C4_16 C 15.46492(18) 3.4621(6) 2.55154(13)
C5_16 C 16.81393(18) 3.6026(6) 2.94640(13)
C6_16 C 17.28721(19) 3.1390(6) 4.20429(14)
C7_16 C 18.5998(2) 3.2621(7) 4.55204(15)
C8_16 C 19.5146(2) 3.8531(7) 3.66477(16)
C9_16 C 19.09803(19) 4.3162(7) 2.45103(14)
C10_16 C 17.74437(18) 4.2046(6) 2.04639(13)
C11_16 C 13.66044(18) 4.4590(6) -0.54510(13)
C12_16 C 13.69753(17) 3.8760(6) 0.73965(12)
C13_16 C 12.52724(18) 3.3521(6) 1.28667(13)
H1_16 H 17.8827 5.0764 0.1989
H4_16 H 14.8596 3.0562 3.1286
H6_16 H 16.6921 2.7449 4.8002
H7_16 H 18.8901 2.9540 5.3795
H8_16 H 20.4100 3.9288 3.9068
H9_16 H 19.7140 4.7127 1.8775
H13_16 H 12.5307 2.9587 2.1288
S1_17 S 6.69969(5) 2.85582(15) 18.51334(3)
C1_17 C 4.64629(18) 3.2203(6) 16.65993(14)
C2_17 C 5.96294(18) 3.3702(6) 17.00716(13)
C3_17 C 6.90618(17) 3.9734(6) 16.12460(13)
C4_17 C 6.47042(18) 4.4279(6) 14.89725(13)
C5_17 C 5.12141(18) 4.2874(6) 14.50239(13)
C6_17 C 4.64814(19) 4.7510(6) 13.24450(14)
C7_17 C 3.3356(2) 4.6279(7) 12.89675(15)
C8_17 C 2.4208(2) 4.0369(7) 13.78402(16)
C9_17 C 2.83731(19) 3.5738(7) 14.99776(14)
C10_17 C 4.19097(18) 3.6854(6) 15.40239(13)
C11_17 C 8.27491(18) 3.4310(6) 17.99389(13)
C12_17 C 8.23782(17) 4.0140(6) 16.70913(12)
C13_17 C 9.40811(18) 4.5379(6) 16.16211(13)
H1_17 H 4.0526 2.8136 17.2499
H4_17 H 7.0757 4.8338 14.3202
H6_17 H 5.2433 5.1451 12.6486
H7_17 H 3.0452 4.9360 12.0693
H8_17 H 1.5254 3.9612 13.5420
H9_17 H 2.2214 3.1773 15.5713
H13_17 H 9.4046 4.9312 15.3200
S1_18 S 12.15299(5) 5.03418(15) 16.38424(3)
C1_18 C 14.20639(18) 4.6697(6) 18.23765(14)
C2_18 C 12.88974(18) 4.5198(6) 17.89042(13)
C3_18 C 11.94651(17) 3.9166(6) 18.77298(13)
C4_18 C 12.38227(18) 3.4621(6) 20.00032(13)
C5_18 C 13.73128(18) 3.6026(6) 20.39519(13)
C6_18 C 14.20455(19) 3.1390(6) 21.65307(14)
C7_18 C 15.5171(2) 3.2621(7) 22.00083(15)
C8_18 C 16.4319(2) 3.8531(7) 21.11356(16)
C9_18 C 16.01537(19) 4.3162(7) 19.89982(14)
C10_18 C 14.66171(18) 4.2046(6) 19.49518(13)
C11_18 C 10.57778(18) 4.4590(6) 16.90369(13)
C12_18 C 10.61487(17) 3.8760(6) 18.18844(12)
C13_18 C 9.44458(18) 3.3521(6) 18.73546(13)
H1_18 H 14.8001 5.0764 17.6477
H4_18 H 11.7770 3.0562 20.5774
H6_18 H 13.6094 2.7449 22.2489
H7_18 H 15.8075 2.9540 22.8282
H8_18 H 17.3273 3.9288 21.3556
H9_18 H 16.6313 4.7127 19.3263
H13_18 H 9.4480 2.9587 19.5775
loop_
_geom_bond_atom_site_label_1
_geom_bond_atom_site_label_2
_geom_bond_site_symmetry_1
_geom_bond_site_symmetry_2
S1 C2 1_555 1_555
S1 C11 1_555 1_555
C1 C2 1_555 1_555
C1 C10 1_555 1_555
C1 H1 1_555 1_555
C2 C3 1_555 1_555
C3 C4 1_555 1_555
C3 C12 1_555 1_555
C4 C5 1_555 1_555
C4 H4 1_555 1_555
C5 C6 1_555 1_555
C5 C10 1_555 1_555
C6 C7 1_555 1_555
C6 H6 1_555 1_555
C7 C8 1_555 1_555
C7 H7 1_555 1_555
C8 C9 1_555 1_555
C8 H8 1_555 1_555
C9 C10 1_555 1_555
C9 H9 1_555 1_555
C11 C12 1_555 1_555
C11 C13_2 1_555 1_555
C12 C13 1_555 1_555
C13 H13 1_555 1_555
C13 C11_2 1_555 1_555
S1_2 C2_2 1_555 1_555
S1_2 C11_2 1_555 1_555
C1_2 C2_2 1_555 1_555
C1_2 C10_2 1_555 1_555
C1_2 H1_2 1_555 1_555
C2_2 C3_2 1_555 1_555
C3_2 C4_2 1_555 1_555
C3_2 C12_2 1_555 1_555
C4_2 C5_2 1_555 1_555
C4_2 H4_2 1_555 1_555
C5_2 C6_2 1_555 1_555
C5_2 C10_2 1_555 1_555
C6_2 C7_2 1_555 1_555
C6_2 H6_2 1_555 1_555
C7_2 C8_2 1_555 1_555
C7_2 H7_2 1_555 1_555
C8_2 C9_2 1_555 1_555
C8_2 H8_2 1_555 1_555
C9_2 C10_2 1_555 1_555
C9_2 H9_2 1_555 1_555
C11_2 C12_2 1_555 1_555
C12_2 C13_2 1_555 1_555
C13_2 H13_2 1_555 1_555
S1_3 C2_3 1_555 1_555
S1_3 C11_3 1_555 1_555
C1_3 C2_3 1_555 1_555
C1_3 C10_3 1_555 1_555
C1_3 H1_3 1_555 1_555
C2_3 C3_3 1_555 1_555
C3_3 C4_3 1_555 1_555
C3_3 C12_3 1_555 1_555
C4_3 C5_3 1_555 1_555
C4_3 H4_3 1_555 1_555
C5_3 C6_3 1_555 1_555
C5_3 C10_3 1_555 1_555
C6_3 C7_3 1_555 1_555
C6_3 H6_3 1_555 1_555
C7_3 C8_3 1_555 1_555
C7_3 H7_3 1_555 1_555
C8_3 C9_3 1_555 1_555
C8_3 H8_3 1_555 1_555
C9_3 C10_3 1_555 1_555
C9_3 H9_3 1_555 1_555
C11_3 C12_3 1_555 1_555
C11_3 C13_4 1_555 1_555
C12_3 C13_3 1_555 1_555
C13_3 H13_3 1_555 1_555
C13_3 C11_4 1_555 1_555
S1_4 C2_4 1_555 1_555
S1_4 C11_4 1_555 1_555
C1_4 C2_4 1_555 1_555
C1_4 C10_4 1_555 1_555
C1_4 H1_4 1_555 1_555
C2_4 C3_4 1_555 1_555
C3_4 C4_4 1_555 1_555
C3_4 C12_4 1_555 1_555
C4_4 C5_4 1_555 1_555
C4_4 H4_4 1_555 1_555
C5_4 C6_4 1_555 1_555
C5_4 C10_4 1_555 1_555
C6_4 C7_4 1_555 1_555
C6_4 H6_4 1_555 1_555
C7_4 C8_4 1_555 1_555
C7_4 H7_4 1_555 1_555
C8_4 C9_4 1_555 1_555
C8_4 H8_4 1_555 1_555
C9_4 C10_4 1_555 1_555
C9_4 H9_4 1_555 1_555
C11_4 C12_4 1_555 1_555
C12_4 C13_4 1_555 1_555
C13_4 H13_4 1_555 1_555
S1_5 C2_5 1_555 1_555
S1_5 C11_5 1_555 1_555
C1_5 C2_5 1_555 1_555
C1_5 C10_5 1_555 1_555
C1_5 H1_5 1_555 1_555
C2_5 C3_5 1_555 1_555
C3_5 C4_5 1_555 1_555
C3_5 C12_5 1_555 1_555
C4_5 C5_5 1_555 1_555
C4_5 H4_5 1_555 1_555
C5_5 C6_5 1_555 1_555
C5_5 C10_5 1_555 1_555
C6_5 C7_5 1_555 1_555
C6_5 H6_5 1_555 1_555
C7_5 C8_5 1_555 1_555
C7_5 H7_5 1_555 1_555
C8_5 C9_5 1_555 1_555
C8_5 H8_5 1_555 1_555
C9_5 C10_5 1_555 1_555
C9_5 H9_5 1_555 1_555
C11_5 C12_5 1_555 1_555
C11_5 C13_6 1_555 1_555
C12_5 C13_5 1_555 1_555
C13_5 H13_5 1_555 1_555
C13_5 C11_6 1_555 1_555
S1_6 C2_6 1_555 1_555
S1_6 C11_6 1_555 1_555
C1_6 C2_6 1_555 1_555
C1_6 C10_6 1_555 1_555
C1_6 H1_6 1_555 1_555
C2_6 C3_6 1_555 1_555
C3_6 C4_6 1_555 1_555
C3_6 C12_6 1_555 1_555
C4_6 C5_6 1_555 1_555
C4_6 H4_6 1_555 1_555
C5_6 C6_6 1_555 1_555
C5_6 C10_6 1_555 1_555
C6_6 C7_6 1_555 1_555
C6_6 H6_6 1_555 1_555
C7_6 C8_6 1_555 1_555
C7_6 H7_6 1_555 1_555
C8_6 C9_6 1_555 1_555
C8_6 H8_6 1_555 1_555
C9_6 C10_6 1_555 1_555
C9_6 H9_6 1_555 1_555
C11_6 C12_6 1_555 1_555
C12_6 C13_6 1_555 1_555
C13_6 H13_6 1_555 1_555
S1_7 C2_7 1_555 1_555
S1_7 C11_7 1_555 1_555
C1_7 C2_7 1_555 1_555
C1_7 C10_7 1_555 1_555
C1_7 H1_7 1_555 1_555
C2_7 C3_7 1_555 1_555
C3_7 C4_7 1_555 1_555
C3_7 C12_7 1_555 1_555
C4_7 C5_7 1_555 1_555
C4_7 H4_7 1_555 1_555
C5_7 C6_7 1_555 1_555
C5_7 C10_7 1_555 1_555
C6_7 C7_7 1_555 1_555
C6_7 H6_7 1_555 1_555
C7_7 C8_7 1_555 1_555
C7_7 H7_7 1_555 1_555
C8_7 C9_7 1_555 1_555
C8_7 H8_7 1_555 1_555
C9_7 C10_7 1_555 1_555
C9_7 H9_7 1_555 1_555
C11_7 C12_7 1_555 1_555
C11_7 C13_8 1_555 1_555
C12_7 C13_7 1_555 1_555
C13_7 H13_7 1_555 1_555
C13_7 C11_8 1_555 1_555
S1_8 C2_8 1_555 1_555
S1_8 C11_8 1_555 1_555
C1_8 C2_8 1_555 1_555
C1_8 C10_8 1_555 1_555
C1_8 H1_8 1_555 1_555
C2_8 C3_8 1_555 1_555
C3_8 C4_8 1_555 1_555
C3_8 C12_8 1_555 1_555
C4_8 C5_8 1_555 1_555
C4_8 H4_8 1_555 1_555
C5_8 C6_8 1_555 1_555
C5_8 C10_8 1_555 1_555
C6_8 C7_8 1_555 1_555
C6_8 H6_8 1_555 1_555
C7_8 C8_8 1_555 1_555
C7_8 H7_8 1_555 1_555
C8_8 C9_8 1_555 1_555
C8_8 H8_8 1_555 1_555
C9_8 C10_8 1_555 1_555
C9_8 H9_8 1_555 1_555
C11_8 C12_8 1_555 1_555
C12_8 C13_8 1_555 1_555
C13_8 H13_8 1_555 1_555
S1_9 C2_9 1_555 1_555
S1_9 C11_9 1_555 1_555
C1_9 C2_9 1_555 1_555
C1_9 C10_9 1_555 1_555
C1_9 H1_9 1_555 1_555
C2_9 C3_9 1_555 1_555
C3_9 C4_9 1_555 1_555
C3_9 C12_9 1_555 1_555
C4_9 C5_9 1_555 1_555
C4_9 H4_9 1_555 1_555
C5_9 C6_9 1_555 1_555
C5_9 C10_9 1_555 1_555
C6_9 C7_9 1_555 1_555
C6_9 H6_9 1_555 1_555
C7_9 C8_9 1_555 1_555
C7_9 H7_9 1_555 1_555
C8_9 C9_9 1_555 1_555
C8_9 H8_9 1_555 1_555
C9_9 C10_9 1_555 1_555
C9_9 H9_9 1_555 1_555
C11_9 C12_9 1_555 1_555
C11_9 C13_10 1_555 1_555
C12_9 C13_9 1_555 1_555
C13_9 H13_9 1_555 1_555
C13_9 C11_10 1_555 1_555
S1_10 C2_10 1_555 1_555
S1_10 C11_10 1_555 1_555
C1_10 C2_10 1_555 1_555
C1_10 C10_10 1_555 1_555
C1_10 H1_10 1_555 1_555
C2_10 C3_10 1_555 1_555
C3_10 C4_10 1_555 1_555
C3_10 C12_10 1_555 1_555
C4_10 C5_10 1_555 1_555
C4_10 H4_10 1_555 1_555
C5_10 C6_10 1_555 1_555
C5_10 C10_10 1_555 1_555
C6_10 C7_10 1_555 1_555
C6_10 H6_10 1_555 1_555
C7_10 C8_10 1_555 1_555
C7_10 H7_10 1_555 1_555
C8_10 C9_10 1_555 1_555
C8_10 H8_10 1_555 1_555
C9_10 C10_10 1_555 1_555
C9_10 H9_10 1_555 1_555
C11_10 C12_10 1_555 1_555
C12_10 C13_10 1_555 1_555
C13_10 H13_10 1_555 1_555
S1_11 C2_11 1_555 1_555
S1_11 C11_11 1_555 1_555
C1_11 C2_11 1_555 1_555
C1_11 C10_11 1_555 1_555
C1_11 H1_11 1_555 1_555
C2_11 C3_11 1_555 1_555
C3_11 C4_11 1_555 1_555
C3_11 C12_11 1_555 1_555
C4_11 C5_11 1_555 1_555
C4_11 H4_11 1_555 1_555
C5_11 C6_11 1_555 1_555
C5_11 C10_11 1_555 1_555
C6_11 C7_11 1_555 1_555
C6_11 H6_11 1_555 1_555
C7_11 C8_11 1_555 1_555
C7_11 H7_11 1_555 1_555
C8_11 C9_11 1_555 1_555
C8_11 H8_11 1_555 1_555
C9_11 C10_11 1_555 1_555
C9_11 H9_11 1_555 1_555
C11_11 C12_11 1_555 1_555
C11_11 C13_12 1_555 1_555
C12_11 C13_11 1_555 1_555
C13_11 H13_11 1_555 1_555
C13_11 C11_12 1_555 1_555
S1_12 C2_12 1_555 1_555
S1_12 C11_12 1_555 1_555
C1_12 C2_12 1_555 1_555
C1_12 C10_12 1_555 1_555
C1_12 H1_12 1_555 1_555
C2_12 C3_12 1_555 1_555
C3_12 C4_12 1_555 1_555
C3_12 C12_12 1_555 1_555
C4_12 C5_12 1_555 1_555
C4_12 H4_12 1_555 1_555
C5_12 C6_12 1_555 1_555
C5_12 C10_12 1_555 1_555
C6_12 C7_12 1_555 1_555
C6_12 H6_12 1_555 1_555
C7_12 C8_12 1_555 1_555
C7_12 H7_12 1_555 1_555
C8_12 C9_12 1_555 1_555
C8_12 H8_12 1_555 1_555
C9_12 C10_12 1_555 1_555
C9_12 H9_12 1_555 1_555
C11_12 C12_12 1_555 1_555
C12_12 C13_12 1_555 1_555
C13_12 H13_12 1_555 1_555
S1_13 C2_13 1_555 1_555
S1_13 C11_13 1_555 1_555
C1_13 C2_13 1_555 1_555
C1_13 C10_13 1_555 1_555
C1_13 H1_13 1_555 1_555
C2_13 C3_13 1_555 1_555
C3_13 C4_13 1_555 1_555
C3_13 C12_13 1_555 1_555
C4_13 C5_13 1_555 1_555
C4_13 H4_13 1_555 1_555
C5_13 C6_13 1_555 1_555
C5_13 C10_13 1_555 1_555
C6_13 C7_13 1_555 1_555
C6_13 H6_13 1_555 1_555
C7_13 C8_13 1_555 1_555
C7_13 H7_13 1_555 1_555
C8_13 C9_13 1_555 1_555
C8_13 H8_13 1_555 1_555
C9_13 C10_13 1_555 1_555
C9_13 H9_13 1_555 1_555
C11_13 C12_13 1_555 1_555
C11_13 C13_14 1_555 1_555
C12_13 C13_13 1_555 1_555
C13_13 H13_13 1_555 1_555
C13_13 C11_14 1_555 1_555
S1_14 C2_14 1_555 1_555
S1_14 C11_14 1_555 1_555
C1_14 C2_14 1_555 1_555
C1_14 C10_14 1_555 1_555
C1_14 H1_14 1_555 1_555
C2_14 C3_14 1_555 1_555
C3_14 C4_14 1_555 1_555
C3_14 C12_14 1_555 1_555
C4_14 C5_14 1_555 1_555
C4_14 H4_14 1_555 1_555
C5_14 C6_14 1_555 1_555
C5_14 C10_14 1_555 1_555
C6_14 C7_14 1_555 1_555
C6_14 H6_14 1_555 1_555
C7_14 C8_14 1_555 1_555
C7_14 H7_14 1_555 1_555
C8_14 C9_14 1_555 1_555
C8_14 H8_14 1_555 1_555
C9_14 C10_14 1_555 1_555
C9_14 H9_14 1_555 1_555
C11_14 C12_14 1_555 1_555
C12_14 C13_14 1_555 1_555
C13_14 H13_14 1_555 1_555
S1_15 C2_15 1_555 1_555
S1_15 C11_15 1_555 1_555
C1_15 C2_15 1_555 1_555
C1_15 C10_15 1_555 1_555
C1_15 H1_15 1_555 1_555
C2_15 C3_15 1_555 1_555
C3_15 C4_15 1_555 1_555
C3_15 C12_15 1_555 1_555
C4_15 C5_15 1_555 1_555
C4_15 H4_15 1_555 1_555
C5_15 C6_15 1_555 1_555
C5_15 C10_15 1_555 1_555
C6_15 C7_15 1_555 1_555
C6_15 H6_15 1_555 1_555
C7_15 C8_15 1_555 1_555
C7_15 H7_15 1_555 1_555
C8_15 C9_15 1_555 1_555
C8_15 H8_15 1_555 1_555
C9_15 C10_15 1_555 1_555
C9_15 H9_15 1_555 1_555
C11_15 C12_15 1_555 1_555
C11_15 C13_16 1_555 1_555
C12_15 C13_15 1_555 1_555
C13_15 H13_15 1_555 1_555
C13_15 C11_16 1_555 1_555
S1_16 C2_16 1_555 1_555
S1_16 C11_16 1_555 1_555
C1_16 C2_16 1_555 1_555
C1_16 C10_16 1_555 1_555
C1_16 H1_16 1_555 1_555
C2_16 C3_16 1_555 1_555
C3_16 C4_16 1_555 1_555
C3_16 C12_16 1_555 1_555
C4_16 C5_16 1_555 1_555
C4_16 H4_16 1_555 1_555
C5_16 C6_16 1_555 1_555
C5_16 C10_16 1_555 1_555
C6_16 C7_16 1_555 1_555
C6_16 H6_16 1_555 1_555
C7_16 C8_16 1_555 1_555
C7_16 H7_16 1_555 1_555
C8_16 C9_16 1_555 1_555
C8_16 H8_16 1_555 1_555
C9_16 C10_16 1_555 1_555
C9_16 H9_16 1_555 1_555
C11_16 C12_16 1_555 1_555
C12_16 C13_16 1_555 1_555
C13_16 H13_16 1_555 1_555
S1_17 C2_17 1_555 1_555
S1_17 C11_17 1_555 1_555
C1_17 C2_17 1_555 1_555
C1_17 C10_17 1_555 1_555
C1_17 H1_17 1_555 1_555
C2_17 C3_17 1_555 1_555
C3_17 C4_17 1_555 1_555
C3_17 C12_17 1_555 1_555
C4_17 C5_17 1_555 1_555
C4_17 H4_17 1_555 1_555
C5_17 C6_17 1_555 1_555
C5_17 C10_17 1_555 1_555
C6_17 C7_17 1_555 1_555
C6_17 H6_17 1_555 1_555
C7_17 C8_17 1_555 1_555
C7_17 H7_17 1_555 1_555
C8_17 C9_17 1_555 1_555
C8_17 H8_17 1_555 1_555
C9_17 C10_17 1_555 1_555
C9_17 H9_17 1_555 1_555
C11_17 C12_17 1_555 1_555
C11_17 C13_18 1_555 1_555
C12_17 C13_17 1_555 1_555
C13_17 H13_17 1_555 1_555
C13_17 C11_18 1_555 1_555
S1_18 C2_18 1_555 1_555
S1_18 C11_18 1_555 1_555
C1_18 C2_18 1_555 1_555
C1_18 C10_18 1_555 1_555
C1_18 H1_18 1_555 1_555
C2_18 C3_18 1_555 1_555
C3_18 C4_18 1_555 1_555
C3_18 C12_18 1_555 1_555
C4_18 C5_18 1_555 1_555
C4_18 H4_18 1_555 1_555
C5_18 C6_18 1_555 1_555
C5_18 C10_18 1_555 1_555
C6_18 C7_18 1_555 1_555
C6_18 H6_18 1_555 1_555
C7_18 C8_18 1_555 1_555
C7_18 H7_18 1_555 1_555
C8_18 C9_18 1_555 1_555
C8_18 H8_18 1_555 1_555
C9_18 C10_18 1_555 1_555
C9_18 H9_18 1_555 1_555
C11_18 C12_18 1_555 1_555
C12_18 C13_18 1_555 1_555
C13_18 H13_18 1_555 1_555

#END
