
#######################################################################
#
#                 Cambridge Crystallographic Data Centre
#                                CCDC 
#
#######################################################################
#
# If this CIF has been generated from an entry in the Cambridge 
# Structural Database, then it will include bibliographic, chemical, 
# crystal, experimental, refinement or atomic coordinate data resulting 
# from the CCDC's data processing and validation procedures.
#
#######################################################################

data_TM022
_chemical_formula_moiety         'C910 H490 S70'
_cell_length_a                   1
_cell_length_b                   1
_cell_length_c                   1
_cell_angle_alpha                90
_cell_angle_beta                 90
_cell_angle_gamma                90
_cell_volume                     1
loop_
_atom_site_label
_atom_site_type_symbol
_atom_site_fract_x
_atom_site_fract_y
_atom_site_fract_z
S1 S -1.98652(5) -3.06168(15) -9.78894(3)
C1 C 0.06688(18) -2.6972(6) -7.93553(14)
C2 C -1.24977(18) -2.5473(6) -8.28276(13)
C3 C -2.19301(17) -1.9441(6) -7.40021(13)
C4 C -1.75725(18) -1.4896(6) -6.17286(13)
C5 C -0.40824(18) -1.6301(6) -5.77799(13)
C6 C 0.06503(19) -1.1665(6) -4.52011(14)
C7 C 1.3776(2) -1.2896(7) -4.17235(15)
C8 C 2.2924(2) -1.8806(7) -5.05962(16)
C9 C 1.87586(19) -2.3437(7) -6.27336(14)
C10 C 0.52220(18) -2.2321(6) -6.67800(13)
C11 C -3.56173(18) -2.4865(6) -9.26949(13)
C12 C -3.52465(17) -1.9035(6) -7.98474(12)
C13 C -4.69493(18) -1.3796(6) -7.43772(13)
H1 H 0.6606 -3.1039 -8.5255
H4 H -2.3626 -1.0837 -5.5958
H6 H -0.5301 -0.7724 -3.9242
H7 H 1.6680 -0.9815 -3.3449
H8 H 3.1878 -1.9563 -4.8176
H9 H 2.4918 -2.7402 -6.8469
H13 H -4.6915 -0.9862 -6.5956
S1_2 S -7.43982(5) -0.88332(15) -7.65984(3)
C1_2 C -9.49322(18) -1.2478(6) -9.51325(14)
C2_2 C -8.17657(18) -1.3977(6) -9.16602(13)
C3_2 C -7.23333(17) -2.0009(6) -10.04858(13)
C4_2 C -7.66909(18) -2.4554(6) -11.27593(13)
C5_2 C -9.01810(18) -2.3149(6) -11.67080(13)
C6_2 C -9.49138(19) -2.7785(6) -12.92868(14)
C7_2 C -10.8039(2) -2.6554(7) -13.27643(15)
C8_2 C -11.7187(2) -2.0644(7) -12.38916(16)
C9_2 C -11.30220(19) -1.6013(7) -11.17542(14)
C10_2 C -9.94854(18) -1.7129(6) -10.77079(13)
C11_2 C -5.86461(18) -1.4585(6) -8.17929(13)
C12_2 C -5.90170(17) -2.0415(6) -9.46405(12)
C13_2 C -4.73141(18) -2.5654(6) -10.01107(13)
H1_2 H -10.0869 -0.8411 -8.9233
H4_2 H -7.0638 -2.8613 -11.8530
H6_2 H -8.8963 -3.1726 -13.5246
H7_2 H -11.0943 -2.9635 -14.1039
H8_2 H -12.6141 -1.9887 -12.6312
H9_2 H -11.9181 -1.2048 -10.6019
H13_2 H -4.7349 -2.9588 -10.8531
S1_3 S -5.06918(5) -3.06168(15) 7.65984(3)
C1_3 C -3.01578(18) -2.6972(6) 9.51325(14)
C2_3 C -4.33243(18) -2.5473(6) 9.16602(13)
C3_3 C -5.27567(17) -1.9441(6) 10.04858(13)
C4_3 C -4.83991(18) -1.4896(6) 11.27593(13)
C5_3 C -3.49090(18) -1.6301(6) 11.67080(13)
C6_3 C -3.01762(19) -1.1665(6) 12.92868(14)
C7_3 C -1.7051(2) -1.2896(7) 13.27643(15)
C8_3 C -0.7903(2) -1.8806(7) 12.38916(16)
C9_3 C -1.20680(19) -2.3437(7) 11.17542(14)
C10_3 C -2.56046(18) -2.2321(6) 10.77079(13)
C11_3 C -6.64439(18) -2.4865(6) 8.17929(13)
C12_3 C -6.60730(17) -1.9035(6) 9.46405(12)
C13_3 C -7.77759(18) -1.3796(6) 10.01107(13)
H1_3 H -2.4221 -3.1039 8.9233
H4_3 H -5.4452 -1.0837 11.8530
H6_3 H -3.6127 -0.7724 13.5246
H7_3 H -1.4147 -0.9815 14.1039
H8_3 H 0.1051 -1.9563 12.6312
H9_3 H -0.5909 -2.7402 10.6019
H13_3 H -7.7741 -0.9862 10.8531
S1_4 S -10.52248(5) -0.88332(15) 9.78894(3)
C1_4 C -12.57588(18) -1.2478(6) 7.93553(14)
C2_4 C -11.25923(18) -1.3977(6) 8.28276(13)
C3_4 C -10.31599(17) -2.0009(6) 7.40021(13)
C4_4 C -10.75175(18) -2.4554(6) 6.17286(13)
C5_4 C -12.10076(18) -2.3149(6) 5.77799(13)
C6_4 C -12.57403(19) -2.7785(6) 4.52011(14)
C7_4 C -13.8866(2) -2.6554(7) 4.17235(15)
C8_4 C -14.8014(2) -2.0644(7) 5.05962(16)
C9_4 C -14.38486(19) -1.6013(7) 6.27336(14)
C10_4 C -13.03120(18) -1.7129(6) 6.67800(13)
C11_4 C -8.94727(18) -1.4585(6) 9.26949(13)
C12_4 C -8.98435(17) -2.0415(6) 7.98474(12)
C13_4 C -7.81407(18) -2.5654(6) 7.43772(13)
H1_4 H -13.1696 -0.8411 8.5255
H4_4 H -10.1464 -2.8613 5.5958
H6_4 H -11.9789 -3.1726 3.9242
H7_4 H -14.1770 -2.9635 3.3449
H8_4 H -15.6968 -1.9887 4.8176
H9_4 H -15.0008 -1.2048 6.8469
H13_4 H -7.8175 -2.9587 6.5956
S1_5 S -1.98652(5) 0.88332(15) -9.78894(3)
C1_5 C 0.06688(18) 1.2478(6) -7.93553(14)
C2_5 C -1.24977(18) 1.3977(6) -8.28276(13)
C3_5 C -2.19301(17) 2.0009(6) -7.40021(13)
C4_5 C -1.75725(18) 2.4554(6) -6.17286(13)
C5_5 C -0.40824(18) 2.3149(6) -5.77799(13)
C6_5 C 0.06503(19) 2.7785(6) -4.52011(14)
C7_5 C 1.3776(2) 2.6554(7) -4.17235(15)
C8_5 C 2.2924(2) 2.0644(7) -5.05962(16)
C9_5 C 1.87586(19) 1.6013(7) -6.27336(14)
C10_5 C 0.52220(18) 1.7129(6) -6.67800(13)
C11_5 C -3.56173(18) 1.4585(6) -9.26949(13)
C12_5 C -3.52465(17) 2.0415(6) -7.98474(12)
C13_5 C -4.69493(18) 2.5654(6) -7.43772(13)
H1_5 H 0.6606 0.8411 -8.5255
H4_5 H -2.3626 2.8613 -5.5958
H6_5 H -0.5301 3.1726 -3.9242
H7_5 H 1.6680 2.9635 -3.3449
H8_5 H 3.1878 1.9887 -4.8176
H9_5 H 2.4918 1.2048 -6.8469
H13_5 H -4.6915 2.9587 -6.5956
S1_6 S -7.43982(5) 3.06168(15) -7.65984(3)
C1_6 C -9.49322(18) 2.6972(6) -9.51325(14)
C2_6 C -8.17657(18) 2.5473(6) -9.16602(13)
C3_6 C -7.23333(17) 1.9441(6) -10.04858(13)
C4_6 C -7.66909(18) 1.4896(6) -11.27593(13)
C5_6 C -9.01810(18) 1.6301(6) -11.67080(13)
C6_6 C -9.49138(19) 1.1665(6) -12.92868(14)
C7_6 C -10.8039(2) 1.2896(7) -13.27643(15)
C8_6 C -11.7187(2) 1.8806(7) -12.38916(16)
C9_6 C -11.30220(19) 2.3437(7) -11.17542(14)
C10_6 C -9.94854(18) 2.2321(6) -10.77079(13)
C11_6 C -5.86461(18) 2.4865(6) -8.17929(13)
C12_6 C -5.90170(17) 1.9035(6) -9.46405(12)
C13_6 C -4.73141(18) 1.3796(6) -10.01107(13)
H1_6 H -10.0869 3.1039 -8.9233
H4_6 H -7.0638 1.0837 -11.8530
H6_6 H -8.8963 0.7724 -13.5246
H7_6 H -11.0943 0.9815 -14.1039
H8_6 H -12.6141 1.9563 -12.6312
H9_6 H -11.9181 2.7402 -10.6019
H13_6 H -4.7349 0.9862 -10.8531
S1_7 S -5.06918(5) 0.88332(15) 7.65984(3)
C1_7 C -3.01578(18) 1.2478(6) 9.51325(14)
C2_7 C -4.33243(18) 1.3977(6) 9.16602(13)
C3_7 C -5.27567(17) 2.0009(6) 10.04858(13)
C4_7 C -4.83991(18) 2.4554(6) 11.27593(13)
C5_7 C -3.49090(18) 2.3149(6) 11.67080(13)
C6_7 C -3.01762(19) 2.7785(6) 12.92868(14)
C7_7 C -1.7051(2) 2.6554(7) 13.27643(15)
C8_7 C -0.7903(2) 2.0644(7) 12.38916(16)
C9_7 C -1.20680(19) 1.6013(7) 11.17542(14)
C10_7 C -2.56046(18) 1.7129(6) 10.77079(13)
C11_7 C -6.64439(18) 1.4585(6) 8.17929(13)
C12_7 C -6.60730(17) 2.0415(6) 9.46405(12)
C13_7 C -7.77759(18) 2.5654(6) 10.01107(13)
H1_7 H -2.4221 0.8411 8.9233
H4_7 H -5.4452 2.8613 11.8530
H6_7 H -3.6127 3.1726 13.5246
H7_7 H -1.4147 2.9635 14.1039
H8_7 H 0.1051 1.9887 12.6312
H9_7 H -0.5909 1.2048 10.6019
H13_7 H -7.7741 2.9588 10.8531
S1_8 S -10.52248(5) 3.06168(15) 9.78894(3)
C1_8 C -12.57588(18) 2.6972(6) 7.93553(14)
C2_8 C -11.25923(18) 2.5473(6) 8.28276(13)
C3_8 C -10.31599(17) 1.9441(6) 7.40021(13)
C4_8 C -10.75175(18) 1.4896(6) 6.17286(13)
C5_8 C -12.10076(18) 1.6301(6) 5.77799(13)
C6_8 C -12.57403(19) 1.1665(6) 4.52011(14)
C7_8 C -13.8866(2) 1.2896(7) 4.17235(15)
C8_8 C -14.8014(2) 1.8806(7) 5.05962(16)
C9_8 C -14.38486(19) 2.3437(7) 6.27336(14)
C10_8 C -13.03120(18) 2.2321(6) 6.67800(13)
C11_8 C -8.94727(18) 2.4865(6) 9.26949(13)
C12_8 C -8.98435(17) 1.9035(6) 7.98474(12)
C13_8 C -7.81407(18) 1.3796(6) 7.43772(13)
H1_8 H -13.1696 3.1039 8.5255
H4_8 H -10.1464 1.0837 5.5958
H6_8 H -11.9789 0.7724 3.9242
H7_8 H -14.1770 0.9815 3.3449
H8_8 H -15.6968 1.9563 4.8176
H9_8 H -15.0008 2.7402 6.8469
H13_8 H -7.8175 0.9862 6.5956
S1_9 S 10.52248(5) -3.06168(15) -9.78894(3)
C1_9 C 12.57588(18) -2.6972(6) -7.93553(14)
C2_9 C 11.25923(18) -2.5473(6) -8.28276(13)
C3_9 C 10.31599(17) -1.9441(6) -7.40021(13)
C4_9 C 10.75175(18) -1.4896(6) -6.17286(13)
C5_9 C 12.10076(18) -1.6301(6) -5.77799(13)
C6_9 C 12.57403(19) -1.1665(6) -4.52011(14)
C7_9 C 13.8866(2) -1.2896(7) -4.17235(15)
C8_9 C 14.8014(2) -1.8806(7) -5.05962(16)
C9_9 C 14.38486(19) -2.3437(7) -6.27336(14)
C10_9 C 13.03120(18) -2.2321(6) -6.67800(13)
C11_9 C 8.94727(18) -2.4865(6) -9.26949(13)
C12_9 C 8.98435(17) -1.9035(6) -7.98474(12)
C13_9 C 7.81407(18) -1.3796(6) -7.43772(13)
H1_9 H 13.1696 -3.1039 -8.5255
H4_9 H 10.1464 -1.0837 -5.5958
H6_9 H 11.9789 -0.7724 -3.9242
H7_9 H 14.1770 -0.9815 -3.3449
H8_9 H 15.6968 -1.9563 -4.8176
H9_9 H 15.0008 -2.7402 -6.8469
H13_9 H 7.8175 -0.9862 -6.5956
S1_10 S 5.06918(5) -0.88332(15) -7.65984(3)
C1_10 C 3.01578(18) -1.2478(6) -9.51325(14)
C2_10 C 4.33243(18) -1.3977(6) -9.16602(13)
C3_10 C 5.27567(17) -2.0009(6) -10.04858(13)
C4_10 C 4.83991(18) -2.4554(6) -11.27593(13)
C5_10 C 3.49090(18) -2.3149(6) -11.67080(13)
C6_10 C 3.01762(19) -2.7785(6) -12.92868(14)
C7_10 C 1.7051(2) -2.6554(7) -13.27643(15)
C8_10 C 0.7903(2) -2.0644(7) -12.38916(16)
C9_10 C 1.20680(19) -1.6013(7) -11.17542(14)
C10_10 C 2.56046(18) -1.7129(6) -10.77079(13)
C11_10 C 6.64439(18) -1.4585(6) -8.17929(13)
C12_10 C 6.60730(17) -2.0415(6) -9.46405(12)
C13_10 C 7.77759(18) -2.5654(6) -10.01107(13)
H1_10 H 2.4221 -0.8411 -8.9233
H4_10 H 5.4452 -2.8613 -11.8530
H6_10 H 3.6127 -3.1726 -13.5246
H7_10 H 1.4147 -2.9635 -14.1039
H8_10 H -0.1051 -1.9887 -12.6312
H9_10 H 0.5909 -1.2048 -10.6019
H13_10 H 7.7741 -2.9588 -10.8531
S1_11 S 7.43982(5) -3.06168(15) 7.65984(3)
C1_11 C 9.49322(18) -2.6972(6) 9.51325(14)
C2_11 C 8.17657(18) -2.5473(6) 9.16602(13)
C3_11 C 7.23333(17) -1.9441(6) 10.04858(13)
C4_11 C 7.66909(18) -1.4896(6) 11.27593(13)
C5_11 C 9.01810(18) -1.6301(6) 11.67080(13)
C6_11 C 9.49138(19) -1.1665(6) 12.92868(14)
C7_11 C 10.8039(2) -1.2896(7) 13.27643(15)
C8_11 C 11.7187(2) -1.8806(7) 12.38916(16)
C9_11 C 11.30220(19) -2.3437(7) 11.17542(14)
C10_11 C 9.94854(18) -2.2321(6) 10.77079(13)
C11_11 C 5.86461(18) -2.4865(6) 8.17929(13)
C12_11 C 5.90170(17) -1.9035(6) 9.46405(12)
C13_11 C 4.73141(18) -1.3796(6) 10.01107(13)
H1_11 H 10.0869 -3.1039 8.9233
H4_11 H 7.0638 -1.0837 11.8530
H6_11 H 8.8963 -0.7724 13.5246
H7_11 H 11.0943 -0.9815 14.1039
H8_11 H 12.6141 -1.9563 12.6312
H9_11 H 11.9181 -2.7402 10.6019
H13_11 H 4.7349 -0.9862 10.8531
S1_12 S 1.98652(5) -0.88332(15) 9.78894(3)
C1_12 C -0.06688(18) -1.2478(6) 7.93553(14)
C2_12 C 1.24977(18) -1.3977(6) 8.28276(13)
C3_12 C 2.19301(17) -2.0009(6) 7.40021(13)
C4_12 C 1.75725(18) -2.4554(6) 6.17286(13)
C5_12 C 0.40824(18) -2.3149(6) 5.77799(13)
C6_12 C -0.06503(19) -2.7785(6) 4.52011(14)
C7_12 C -1.3776(2) -2.6554(7) 4.17235(15)
C8_12 C -2.2924(2) -2.0644(7) 5.05962(16)
C9_12 C -1.87586(19) -1.6013(7) 6.27336(14)
C10_12 C -0.52220(18) -1.7129(6) 6.67800(13)
C11_12 C 3.56173(18) -1.4585(6) 9.26949(13)
C12_12 C 3.52465(17) -2.0415(6) 7.98474(12)
C13_12 C 4.69493(18) -2.5654(6) 7.43772(13)
H1_12 H -0.6606 -0.8411 8.5255
H4_12 H 2.3626 -2.8613 5.5958
H6_12 H 0.5301 -3.1726 3.9242
H7_12 H -1.6680 -2.9635 3.3449
H8_12 H -3.1878 -1.9887 4.8176
H9_12 H -2.4918 -1.2048 6.8469
H13_12 H 4.6915 -2.9587 6.5956
S1_13 S 10.52248(5) 0.88332(15) -9.78894(3)
C1_13 C 12.57588(18) 1.2478(6) -7.93553(14)
C2_13 C 11.25923(18) 1.3977(6) -8.28276(13)
C3_13 C 10.31599(17) 2.0009(6) -7.40021(13)
C4_13 C 10.75175(18) 2.4554(6) -6.17286(13)
C5_13 C 12.10076(18) 2.3149(6) -5.77799(13)
C6_13 C 12.57403(19) 2.7785(6) -4.52011(14)
C7_13 C 13.8866(2) 2.6554(7) -4.17235(15)
C8_13 C 14.8014(2) 2.0644(7) -5.05962(16)
C9_13 C 14.38486(19) 1.6013(7) -6.27336(14)
C10_13 C 13.03120(18) 1.7129(6) -6.67800(13)
C11_13 C 8.94727(18) 1.4585(6) -9.26949(13)
C12_13 C 8.98435(17) 2.0415(6) -7.98474(12)
C13_13 C 7.81407(18) 2.5654(6) -7.43772(13)
H1_13 H 13.1696 0.8411 -8.5255
H4_13 H 10.1464 2.8613 -5.5958
H6_13 H 11.9789 3.1726 -3.9242
H7_13 H 14.1770 2.9635 -3.3449
H8_13 H 15.6968 1.9887 -4.8176
H9_13 H 15.0008 1.2048 -6.8469
H13_13 H 7.8175 2.9587 -6.5956
S1_14 S 5.06918(5) 3.06168(15) -7.65984(3)
C1_14 C 3.01578(18) 2.6972(6) -9.51325(14)
C2_14 C 4.33243(18) 2.5473(6) -9.16602(13)
C3_14 C 5.27567(17) 1.9441(6) -10.04858(13)
C4_14 C 4.83991(18) 1.4896(6) -11.27593(13)
C5_14 C 3.49090(18) 1.6301(6) -11.67080(13)
C6_14 C 3.01762(19) 1.1665(6) -12.92868(14)
C7_14 C 1.7051(2) 1.2896(7) -13.27643(15)
C8_14 C 0.7903(2) 1.8806(7) -12.38916(16)
C9_14 C 1.20680(19) 2.3437(7) -11.17542(14)
C10_14 C 2.56046(18) 2.2321(6) -10.77079(13)
C11_14 C 6.64439(18) 2.4865(6) -8.17929(13)
C12_14 C 6.60730(17) 1.9035(6) -9.46405(12)
C13_14 C 7.77759(18) 1.3796(6) -10.01107(13)
H1_14 H 2.4221 3.1039 -8.9233
H4_14 H 5.4452 1.0837 -11.8530
H6_14 H 3.6127 0.7724 -13.5246
H7_14 H 1.4147 0.9815 -14.1039
H8_14 H -0.1051 1.9563 -12.6312
H9_14 H 0.5909 2.7402 -10.6019
H13_14 H 7.7741 0.9862 -10.8531
S1_15 S 7.43982(5) 0.88332(15) 7.65984(3)
C1_15 C 9.49322(18) 1.2478(6) 9.51325(14)
C2_15 C 8.17657(18) 1.3977(6) 9.16602(13)
C3_15 C 7.23333(17) 2.0009(6) 10.04858(13)
C4_15 C 7.66909(18) 2.4554(6) 11.27593(13)
C5_15 C 9.01810(18) 2.3149(6) 11.67080(13)
C6_15 C 9.49138(19) 2.7785(6) 12.92868(14)
C7_15 C 10.8039(2) 2.6554(7) 13.27643(15)
C8_15 C 11.7187(2) 2.0644(7) 12.38916(16)
C9_15 C 11.30220(19) 1.6013(7) 11.17542(14)
C10_15 C 9.94854(18) 1.7129(6) 10.77079(13)
C11_15 C 5.86461(18) 1.4585(6) 8.17929(13)
C12_15 C 5.90170(17) 2.0415(6) 9.46405(12)
C13_15 C 4.73141(18) 2.5654(6) 10.01107(13)
H1_15 H 10.0869 0.8411 8.9233
H4_15 H 7.0638 2.8613 11.8530
H6_15 H 8.8963 3.1726 13.5246
H7_15 H 11.0943 2.9635 14.1039
H8_15 H 12.6141 1.9887 12.6312
H9_15 H 11.9181 1.2048 10.6019
H13_15 H 4.7349 2.9588 10.8531
S1_16 S 1.98652(5) 3.06168(15) 9.78894(3)
C1_16 C -0.06688(18) 2.6972(6) 7.93553(14)
C2_16 C 1.24977(18) 2.5473(6) 8.28276(13)
C3_16 C 2.19301(17) 1.9441(6) 7.40021(13)
C4_16 C 1.75725(18) 1.4896(6) 6.17286(13)
C5_16 C 0.40824(18) 1.6301(6) 5.77799(13)
C6_16 C -0.06503(19) 1.1665(6) 4.52011(14)
C7_16 C -1.3776(2) 1.2896(7) 4.17235(15)
C8_16 C -2.2924(2) 1.8806(7) 5.05962(16)
C9_16 C -1.87586(19) 2.3437(7) 6.27336(14)
C10_16 C -0.52220(18) 2.2321(6) 6.67800(13)
C11_16 C 3.56173(18) 2.4865(6) 9.26949(13)
C12_16 C 3.52465(17) 1.9035(6) 7.98474(12)
C13_16 C 4.69493(18) 1.3796(6) 7.43772(13)
H1_16 H -0.6606 3.1039 8.5255
H4_16 H 2.3626 1.0837 5.5958
H6_16 H 0.5301 0.7724 3.9242
H7_16 H -1.6680 0.9815 3.3449
H8_16 H -3.1878 1.9563 4.8176
H9_16 H -2.4918 2.7402 6.8469
H13_16 H 4.6915 0.9862 6.5956
S1_17 S -12.15299(5) -5.03418(15) -16.38424(3)
C1_17 C -14.20639(18) -4.6697(6) -18.23765(14)
C2_17 C -12.88974(18) -4.5198(6) -17.89042(13)
C3_17 C -11.94651(17) -3.9166(6) -18.77298(13)
C4_17 C -12.38227(18) -3.4621(6) -20.00032(13)
C5_17 C -13.73128(18) -3.6026(6) -20.39519(13)
C6_17 C -14.20455(19) -3.1390(6) -21.65307(14)
C7_17 C -15.5171(2) -3.2621(7) -22.00083(15)
C8_17 C -16.4319(2) -3.8531(7) -21.11356(16)
C9_17 C -16.01537(19) -4.3162(7) -19.89982(14)
C10_17 C -14.66171(18) -4.2046(6) -19.49518(13)
C11_17 C -10.57778(18) -4.4590(6) -16.90369(13)
C12_17 C -10.61487(17) -3.8760(6) -18.18844(12)
C13_17 C -9.44458(18) -3.3521(6) -18.73546(13)
H1_17 H -14.8001 -5.0764 -17.6477
H4_17 H -11.7770 -3.0562 -20.5774
H6_17 H -13.6094 -2.7449 -22.2489
H7_17 H -15.8075 -2.9540 -22.8282
H8_17 H -17.3273 -3.9288 -21.3556
H9_17 H -16.6313 -4.7127 -19.3263
H13_17 H -9.4480 -2.9587 -19.5775
S1_18 S -6.69969(5) -2.85582(15) -18.51334(3)
C1_18 C -4.64629(18) -3.2203(6) -16.65993(14)
C2_18 C -5.96294(18) -3.3702(6) -17.00716(13)
C3_18 C -6.90618(17) -3.9734(6) -16.12460(13)
C4_18 C -6.47042(18) -4.4279(6) -14.89725(13)
C5_18 C -5.12141(18) -4.2874(6) -14.50239(13)
C6_18 C -4.64814(19) -4.7510(6) -13.24450(14)
C7_18 C -3.3356(2) -4.6279(7) -12.89675(15)
C8_18 C -2.4208(2) -4.0369(7) -13.78402(16)
C9_18 C -2.83731(19) -3.5738(7) -14.99776(14)
C10_18 C -4.19097(18) -3.6854(6) -15.40239(13)
C11_18 C -8.27491(18) -3.4310(6) -17.99389(13)
C12_18 C -8.23782(17) -4.0140(6) -16.70913(12)
C13_18 C -9.40811(18) -4.5379(6) -16.16211(13)
H1_18 H -4.0526 -2.8136 -17.2499
H4_18 H -7.0757 -4.8338 -14.3202
H6_18 H -5.2433 -5.1451 -12.6486
H7_18 H -3.0452 -4.9360 -12.0693
H8_18 H -1.5254 -3.9612 -13.5420
H9_18 H -2.2214 -3.1773 -15.5713
H13_18 H -9.4046 -4.9312 -15.3200
S1_19 S -15.23565(5) -5.03418(15) 1.06455(3)
C1_19 C -17.28905(18) -4.6697(6) -0.78886(14)
C2_19 C -15.97240(18) -4.5198(6) -0.44163(13)
C3_19 C -15.02916(17) -3.9166(6) -1.32419(13)
C4_19 C -15.46492(18) -3.4621(6) -2.55154(13)
C5_19 C -16.81393(18) -3.6026(6) -2.94640(13)
C6_19 C -17.28721(19) -3.1390(6) -4.20429(14)
C7_19 C -18.5998(2) -3.2621(7) -4.55204(15)
C8_19 C -19.5146(2) -3.8531(7) -3.66477(16)
C9_19 C -19.09803(19) -4.3162(7) -2.45103(14)
C10_19 C -17.74437(18) -4.2046(6) -2.04639(13)
C11_19 C -13.66044(18) -4.4590(6) 0.54510(13)
C12_19 C -13.69753(17) -3.8760(6) -0.73965(12)
C13_19 C -12.52724(18) -3.3521(6) -1.28667(13)
H1_19 H -17.8827 -5.0764 -0.1989
H4_19 H -14.8596 -3.0562 -3.1286
H6_19 H -16.6921 -2.7449 -4.8002
H7_19 H -18.8901 -2.9540 -5.3795
H8_19 H -20.4100 -3.9288 -3.9068
H9_19 H -19.7140 -4.7127 -1.8775
H13_19 H -12.5307 -2.9587 -2.1288
S1_20 S -9.78235(5) -2.85582(15) -1.06455(3)
C1_20 C -7.72895(18) -3.2203(6) 0.78886(14)
C2_20 C -9.04560(18) -3.3702(6) 0.44163(13)
C3_20 C -9.98884(17) -3.9734(6) 1.32419(13)
C4_20 C -9.55308(18) -4.4279(6) 2.55154(13)
C5_20 C -8.20407(18) -4.2874(6) 2.94640(13)
C6_20 C -7.73079(19) -4.7510(6) 4.20429(14)
C7_20 C -6.4182(2) -4.6279(7) 4.55204(15)
C8_20 C -5.5034(2) -4.0369(7) 3.66477(16)
C9_20 C -5.91997(19) -3.5738(7) 2.45103(14)
C10_20 C -7.27363(18) -3.6854(6) 2.04639(13)
C11_20 C -11.35756(18) -3.4310(6) -0.54510(13)
C12_20 C -11.32047(17) -4.0140(6) 0.73965(12)
C13_20 C -12.49076(18) -4.5379(6) 1.28667(13)
H1_20 H -7.1353 -2.8136 0.1989
H4_20 H -10.1584 -4.8338 3.1286
H6_20 H -8.3259 -5.1451 4.8002
H7_20 H -6.1279 -4.9360 5.3795
H8_20 H -4.6080 -3.9612 3.9068
H9_20 H -5.3040 -3.1773 1.8775
H13_20 H -12.4873 -4.9312 2.1288
S1_21 S -18.31831(5) -5.03418(15) 18.51334(3)
C1_21 C -20.37171(18) -4.6697(6) 16.65993(14)
C2_21 C -19.05506(18) -4.5198(6) 17.00716(13)
C3_21 C -18.11182(17) -3.9166(6) 16.12460(13)
C4_21 C -18.54758(18) -3.4621(6) 14.89725(13)
C5_21 C -19.89659(18) -3.6026(6) 14.50239(13)
C6_21 C -20.36986(19) -3.1390(6) 13.24450(14)
C7_21 C -21.6824(2) -3.2621(7) 12.89675(15)
C8_21 C -22.5972(2) -3.8531(7) 13.78402(16)
C9_21 C -22.18069(19) -4.3162(7) 14.99776(14)
C10_21 C -20.82703(18) -4.2046(6) 15.40239(13)
C11_21 C -16.74309(18) -4.4590(6) 17.99389(13)
C12_21 C -16.78018(17) -3.8760(6) 16.70913(12)
C13_21 C -15.60989(18) -3.3521(6) 16.16211(13)
H1_21 H -20.9654 -5.0764 17.2499
H4_21 H -17.9423 -3.0562 14.3202
H6_21 H -19.7747 -2.7449 12.6486
H7_21 H -21.9728 -2.9540 12.0693
H8_21 H -23.4926 -3.9288 13.5420
H9_21 H -22.7966 -4.7127 15.5713
H13_21 H -15.6134 -2.9587 15.3200
S1_22 S -12.86501(5) -2.85582(15) 16.38424(3)
C1_22 C -10.81161(18) -3.2203(6) 18.23765(14)
C2_22 C -12.12826(18) -3.3702(6) 17.89042(13)
C3_22 C -13.07149(17) -3.9734(6) 18.77298(13)
C4_22 C -12.63573(18) -4.4279(6) 20.00032(13)
C5_22 C -11.28672(18) -4.2874(6) 20.39519(13)
C6_22 C -10.81345(19) -4.7510(6) 21.65307(14)
C7_22 C -9.5009(2) -4.6279(7) 22.00083(15)
C8_22 C -8.5861(2) -4.0369(7) 21.11356(16)
C9_22 C -9.00263(19) -3.5738(7) 19.89982(14)
C10_22 C -10.35629(18) -3.6854(6) 19.49518(13)
C11_22 C -14.44022(18) -3.4310(6) 16.90369(13)
C12_22 C -14.40313(17) -4.0140(6) 18.18844(12)
C13_22 C -15.57342(18) -4.5379(6) 18.73546(13)
H1_22 H -10.2179 -2.8136 17.6477
H4_22 H -13.2410 -4.8338 20.5774
H6_22 H -11.4086 -5.1451 22.2489
H7_22 H -9.2105 -4.9360 22.8282
H8_22 H -7.6907 -3.9612 21.3556
H9_22 H -8.3867 -3.1773 19.3263
H13_22 H -15.5700 -4.9312 19.5775
S1_23 S -12.15299(5) -1.08918(15) -16.38424(3)
C1_23 C -14.20639(18) -0.7247(6) -18.23765(14)
C2_23 C -12.88974(18) -0.5748(6) -17.89042(13)
C3_23 C -11.94651(17) 0.0284(6) -18.77298(13)
C4_23 C -12.38227(18) 0.4829(6) -20.00032(13)
C5_23 C -13.73128(18) 0.3424(6) -20.39519(13)
C6_23 C -14.20455(19) 0.8060(6) -21.65307(14)
C7_23 C -15.5171(2) 0.6829(7) -22.00083(15)
C8_23 C -16.4319(2) 0.0919(7) -21.11356(16)
C9_23 C -16.01537(19) -0.3712(7) -19.89982(14)
C10_23 C -14.66171(18) -0.2596(6) -19.49518(13)
C11_23 C -10.57778(18) -0.5140(6) -16.90369(13)
C12_23 C -10.61487(17) 0.0690(6) -18.18844(12)
C13_23 C -9.44458(18) 0.5929(6) -18.73546(13)
H1_23 H -14.8001 -1.1314 -17.6477
H4_23 H -11.7770 0.8888 -20.5774
H6_23 H -13.6094 1.2001 -22.2489
H7_23 H -15.8075 0.9910 -22.8282
H8_23 H -17.3273 0.0162 -21.3556
H9_23 H -16.6313 -0.7677 -19.3263
H13_23 H -9.4480 0.9862 -19.5775
S1_24 S -6.69969(5) 1.08918(15) -18.51334(3)
C1_24 C -4.64629(18) 0.7247(6) -16.65993(14)
C2_24 C -5.96294(18) 0.5748(6) -17.00716(13)
C3_24 C -6.90618(17) -0.0284(6) -16.12460(13)
C4_24 C -6.47042(18) -0.4829(6) -14.89725(13)
C5_24 C -5.12141(18) -0.3424(6) -14.50239(13)
C6_24 C -4.64814(19) -0.8060(6) -13.24450(14)
C7_24 C -3.3356(2) -0.6829(7) -12.89675(15)
C8_24 C -2.4208(2) -0.0919(7) -13.78402(16)
C9_24 C -2.83731(19) 0.3712(7) -14.99776(14)
C10_24 C -4.19097(18) 0.2596(6) -15.40239(13)
C11_24 C -8.27491(18) 0.5140(6) -17.99389(13)
C12_24 C -8.23782(17) -0.0690(6) -16.70913(12)
C13_24 C -9.40811(18) -0.5929(6) -16.16211(13)
H1_24 H -4.0526 1.1314 -17.2499
H4_24 H -7.0757 -0.8888 -14.3202
H6_24 H -5.2433 -1.2001 -12.6486
H7_24 H -3.0452 -0.9910 -12.0693
H8_24 H -1.5254 -0.0162 -13.5420
H9_24 H -2.2214 0.7677 -15.5713
H13_24 H -9.4046 -0.9863 -15.3200
S1_25 S -15.23565(5) -1.08918(15) 1.06455(3)
C1_25 C -17.28905(18) -0.7247(6) -0.78886(14)
C2_25 C -15.97240(18) -0.5748(6) -0.44163(13)
C3_25 C -15.02916(17) 0.0284(6) -1.32419(13)
C4_25 C -15.46492(18) 0.4829(6) -2.55154(13)
C5_25 C -16.81393(18) 0.3424(6) -2.94640(13)
C6_25 C -17.28721(19) 0.8060(6) -4.20429(14)
C7_25 C -18.5998(2) 0.6829(7) -4.55204(15)
C8_25 C -19.5146(2) 0.0919(7) -3.66477(16)
C9_25 C -19.09803(19) -0.3712(7) -2.45103(14)
C10_25 C -17.74437(18) -0.2596(6) -2.04639(13)
C11_25 C -13.66044(18) -0.5140(6) 0.54510(13)
C12_25 C -13.69753(17) 0.0690(6) -0.73965(12)
C13_25 C -12.52724(18) 0.5929(6) -1.28667(13)
H1_25 H -17.8827 -1.1314 -0.1989
H4_25 H -14.8596 0.8888 -3.1286
H6_25 H -16.6921 1.2001 -4.8002
H7_25 H -18.8901 0.9910 -5.3795
H8_25 H -20.4100 0.0162 -3.9068
H9_25 H -19.7140 -0.7677 -1.8775
H13_25 H -12.5307 0.9862 -2.1288
S1_26 S -9.78235(5) 1.08918(15) -1.06455(3)
C1_26 C -7.72895(18) 0.7247(6) 0.78886(14)
C2_26 C -9.04560(18) 0.5748(6) 0.44163(13)
C3_26 C -9.98884(17) -0.0284(6) 1.32419(13)
C4_26 C -9.55308(18) -0.4829(6) 2.55154(13)
C5_26 C -8.20407(18) -0.3424(6) 2.94640(13)
C6_26 C -7.73079(19) -0.8060(6) 4.20429(14)
C7_26 C -6.4182(2) -0.6829(7) 4.55204(15)
C8_26 C -5.5034(2) -0.0919(7) 3.66477(16)
C9_26 C -5.91997(19) 0.3712(7) 2.45103(14)
C10_26 C -7.27363(18) 0.2596(6) 2.04639(13)
C11_26 C -11.35756(18) 0.5140(6) -0.54510(13)
C12_26 C -11.32047(17) -0.0690(6) 0.73965(12)
C13_26 C -12.49076(18) -0.5929(6) 1.28667(13)
H1_26 H -7.1353 1.1314 0.1989
H4_26 H -10.1584 -0.8888 3.1286
H6_26 H -8.3259 -1.2001 4.8002
H7_26 H -6.1279 -0.9910 5.3795
H8_26 H -4.6080 -0.0162 3.9068
H9_26 H -5.3040 0.7677 1.8775
H13_26 H -12.4873 -0.9862 2.1288
S1_27 S -18.31831(5) -1.08918(15) 18.51334(3)
C1_27 C -20.37171(18) -0.7247(6) 16.65993(14)
C2_27 C -19.05506(18) -0.5748(6) 17.00716(13)
C3_27 C -18.11182(17) 0.0284(6) 16.12460(13)
C4_27 C -18.54758(18) 0.4829(6) 14.89725(13)
C5_27 C -19.89659(18) 0.3424(6) 14.50239(13)
C6_27 C -20.36986(19) 0.8060(6) 13.24450(14)
C7_27 C -21.6824(2) 0.6829(7) 12.89675(15)
C8_27 C -22.5972(2) 0.0919(7) 13.78402(16)
C9_27 C -22.18069(19) -0.3712(7) 14.99776(14)
C10_27 C -20.82703(18) -0.2596(6) 15.40239(13)
C11_27 C -16.74309(18) -0.5140(6) 17.99389(13)
C12_27 C -16.78018(17) 0.0690(6) 16.70913(12)
C13_27 C -15.60989(18) 0.5929(6) 16.16211(13)
H1_27 H -20.9654 -1.1314 17.2499
H4_27 H -17.9423 0.8888 14.3202
H6_27 H -19.7747 1.2001 12.6486
H7_27 H -21.9728 0.9910 12.0693
H8_27 H -23.4926 0.0162 13.5420
H9_27 H -22.7966 -0.7677 15.5713
H13_27 H -15.6134 0.9863 15.3200
S1_28 S -12.86501(5) 1.08918(15) 16.38424(3)
C1_28 C -10.81161(18) 0.7247(6) 18.23765(14)
C2_28 C -12.12826(18) 0.5748(6) 17.89042(13)
C3_28 C -13.07149(17) -0.0284(6) 18.77298(13)
C4_28 C -12.63573(18) -0.4829(6) 20.00032(13)
C5_28 C -11.28672(18) -0.3424(6) 20.39519(13)
C6_28 C -10.81345(19) -0.8060(6) 21.65307(14)
C7_28 C -9.5009(2) -0.6829(7) 22.00083(15)
C8_28 C -8.5861(2) -0.0919(7) 21.11356(16)
C9_28 C -9.00263(19) 0.3712(7) 19.89982(14)
C10_28 C -10.35629(18) 0.2596(6) 19.49518(13)
C11_28 C -14.44022(18) 0.5140(6) 16.90369(13)
C12_28 C -14.40313(17) -0.0690(6) 18.18844(12)
C13_28 C -15.57342(18) -0.5929(6) 18.73546(13)
H1_28 H -10.2179 1.1314 17.6477
H4_28 H -13.2410 -0.8888 20.5774
H6_28 H -11.4086 -1.2001 22.2489
H7_28 H -9.2105 -0.9910 22.8282
H8_28 H -7.6907 -0.0162 21.3556
H9_28 H -8.3867 0.7677 19.3263
H13_28 H -15.5700 -0.9862 19.5775
S1_29 S -12.15299(5) 2.85582(15) -16.38424(3)
C1_29 C -14.20639(18) 3.2203(6) -18.23765(14)
C2_29 C -12.88974(18) 3.3702(6) -17.89042(13)
C3_29 C -11.94651(17) 3.9734(6) -18.77298(13)
C4_29 C -12.38227(18) 4.4279(6) -20.00032(13)
C5_29 C -13.73128(18) 4.2874(6) -20.39519(13)
C6_29 C -14.20455(19) 4.7510(6) -21.65307(14)
C7_29 C -15.5171(2) 4.6279(7) -22.00083(15)
C8_29 C -16.4319(2) 4.0369(7) -21.11356(16)
C9_29 C -16.01537(19) 3.5738(7) -19.89982(14)
C10_29 C -14.66171(18) 3.6854(6) -19.49518(13)
C11_29 C -10.57778(18) 3.4310(6) -16.90369(13)
C12_29 C -10.61487(17) 4.0140(6) -18.18844(12)
C13_29 C -9.44458(18) 4.5379(6) -18.73546(13)
H1_29 H -14.8001 2.8136 -17.6477
H4_29 H -11.7770 4.8338 -20.5774
H6_29 H -13.6094 5.1451 -22.2489
H7_29 H -15.8075 4.9360 -22.8282
H8_29 H -17.3273 3.9612 -21.3556
H9_29 H -16.6313 3.1773 -19.3263
H13_29 H -9.4480 4.9312 -19.5775
S1_30 S -6.69969(5) 5.03418(15) -18.51334(3)
C1_30 C -4.64629(18) 4.6697(6) -16.65993(14)
C2_30 C -5.96294(18) 4.5198(6) -17.00716(13)
C3_30 C -6.90618(17) 3.9166(6) -16.12460(13)
C4_30 C -6.47042(18) 3.4621(6) -14.89725(13)
C5_30 C -5.12141(18) 3.6026(6) -14.50239(13)
C6_30 C -4.64814(19) 3.1390(6) -13.24450(14)
C7_30 C -3.3356(2) 3.2621(7) -12.89675(15)
C8_30 C -2.4208(2) 3.8531(7) -13.78402(16)
C9_30 C -2.83731(19) 4.3162(7) -14.99776(14)
C10_30 C -4.19097(18) 4.2046(6) -15.40239(13)
C11_30 C -8.27491(18) 4.4590(6) -17.99389(13)
C12_30 C -8.23782(17) 3.8760(6) -16.70913(12)
C13_30 C -9.40811(18) 3.3521(6) -16.16211(13)
H1_30 H -4.0526 5.0764 -17.2499
H4_30 H -7.0757 3.0562 -14.3202
H6_30 H -5.2433 2.7449 -12.6486
H7_30 H -3.0452 2.9540 -12.0693
H8_30 H -1.5254 3.9288 -13.5420
H9_30 H -2.2214 4.7127 -15.5713
H13_30 H -9.4046 2.9587 -15.3200
S1_31 S -15.23565(5) 2.85582(15) 1.06455(3)
C1_31 C -17.28905(18) 3.2203(6) -0.78886(14)
C2_31 C -15.97240(18) 3.3702(6) -0.44163(13)
C3_31 C -15.02916(17) 3.9734(6) -1.32419(13)
C4_31 C -15.46492(18) 4.4279(6) -2.55154(13)
C5_31 C -16.81393(18) 4.2874(6) -2.94640(13)
C6_31 C -17.28721(19) 4.7510(6) -4.20429(14)
C7_31 C -18.5998(2) 4.6279(7) -4.55204(15)
C8_31 C -19.5146(2) 4.0369(7) -3.66477(16)
C9_31 C -19.09803(19) 3.5738(7) -2.45103(14)
C10_31 C -17.74437(18) 3.6854(6) -2.04639(13)
C11_31 C -13.66044(18) 3.4310(6) 0.54510(13)
C12_31 C -13.69753(17) 4.0140(6) -0.73965(12)
C13_31 C -12.52724(18) 4.5379(6) -1.28667(13)
H1_31 H -17.8827 2.8136 -0.1989
H4_31 H -14.8596 4.8338 -3.1286
H6_31 H -16.6921 5.1451 -4.8002
H7_31 H -18.8901 4.9360 -5.3795
H8_31 H -20.4100 3.9612 -3.9068
H9_31 H -19.7140 3.1773 -1.8775
H13_31 H -12.5307 4.9312 -2.1288
S1_32 S -9.78235(5) 5.03418(15) -1.06455(3)
C1_32 C -7.72895(18) 4.6697(6) 0.78886(14)
C2_32 C -9.04560(18) 4.5198(6) 0.44163(13)
C3_32 C -9.98884(17) 3.9166(6) 1.32419(13)
C4_32 C -9.55308(18) 3.4621(6) 2.55154(13)
C5_32 C -8.20407(18) 3.6026(6) 2.94640(13)
C6_32 C -7.73079(19) 3.1390(6) 4.20429(14)
C7_32 C -6.4182(2) 3.2621(7) 4.55204(15)
C8_32 C -5.5034(2) 3.8531(7) 3.66477(16)
C9_32 C -5.91997(19) 4.3162(7) 2.45103(14)
C10_32 C -7.27363(18) 4.2046(6) 2.04639(13)
C11_32 C -11.35756(18) 4.4590(6) -0.54510(13)
C12_32 C -11.32047(17) 3.8760(6) 0.73965(12)
C13_32 C -12.49076(18) 3.3521(6) 1.28667(13)
H1_32 H -7.1353 5.0764 0.1989
H4_32 H -10.1584 3.0562 3.1286
H6_32 H -8.3259 2.7449 4.8002
H7_32 H -6.1279 2.9540 5.3795
H8_32 H -4.6080 3.9288 3.9068
H9_32 H -5.3040 4.7127 1.8775
H13_32 H -12.4873 2.9587 2.1288
S1_33 S -18.31831(5) 2.85582(15) 18.51334(3)
C1_33 C -20.37171(18) 3.2203(6) 16.65993(14)
C2_33 C -19.05506(18) 3.3702(6) 17.00716(13)
C3_33 C -18.11182(17) 3.9734(6) 16.12460(13)
C4_33 C -18.54758(18) 4.4279(6) 14.89725(13)
C5_33 C -19.89659(18) 4.2874(6) 14.50239(13)
C6_33 C -20.36986(19) 4.7510(6) 13.24450(14)
C7_33 C -21.6824(2) 4.6279(7) 12.89675(15)
C8_33 C -22.5972(2) 4.0369(7) 13.78402(16)
C9_33 C -22.18069(19) 3.5738(7) 14.99776(14)
C10_33 C -20.82703(18) 3.6854(6) 15.40239(13)
C11_33 C -16.74309(18) 3.4310(6) 17.99389(13)
C12_33 C -16.78018(17) 4.0140(6) 16.70913(12)
C13_33 C -15.60989(18) 4.5379(6) 16.16211(13)
H1_33 H -20.9654 2.8136 17.2499
H4_33 H -17.9423 4.8338 14.3202
H6_33 H -19.7747 5.1451 12.6486
H7_33 H -21.9728 4.9360 12.0693
H8_33 H -23.4926 3.9612 13.5420
H9_33 H -22.7966 3.1773 15.5713
H13_33 H -15.6134 4.9312 15.3200
S1_34 S -12.86501(5) 5.03418(15) 16.38424(3)
C1_34 C -10.81161(18) 4.6697(6) 18.23765(14)
C2_34 C -12.12826(18) 4.5198(6) 17.89042(13)
C3_34 C -13.07149(17) 3.9166(6) 18.77298(13)
C4_34 C -12.63573(18) 3.4621(6) 20.00032(13)
C5_34 C -11.28672(18) 3.6026(6) 20.39519(13)
C6_34 C -10.81345(19) 3.1390(6) 21.65307(14)
C7_34 C -9.5009(2) 3.2621(7) 22.00083(15)
C8_34 C -8.5861(2) 3.8531(7) 21.11356(16)
C9_34 C -9.00263(19) 4.3162(7) 19.89982(14)
C10_34 C -10.35629(18) 4.2046(6) 19.49518(13)
C11_34 C -14.44022(18) 4.4590(6) 16.90369(13)
C12_34 C -14.40313(17) 3.8760(6) 18.18844(12)
C13_34 C -15.57342(18) 3.3521(6) 18.73546(13)
H1_34 H -10.2179 5.0764 17.6477
H4_34 H -13.2410 3.0562 20.5774
H6_34 H -11.4086 2.7449 22.2489
H7_34 H -9.2105 2.9540 22.8282
H8_34 H -7.6907 3.9288 21.3556
H9_34 H -8.3867 4.7127 19.3263
H13_34 H -15.5700 2.9587 19.5775
S1_35 S 0.35601(5) -5.03418(15) -16.38424(3)
C1_35 C -1.69739(18) -4.6697(6) -18.23765(14)
C2_35 C -0.38074(18) -4.5198(6) -17.89042(13)
C3_35 C 0.56249(17) -3.9166(6) -18.77298(13)
C4_35 C 0.12673(18) -3.4621(6) -20.00032(13)
C5_35 C -1.22228(18) -3.6026(6) -20.39519(13)
C6_35 C -1.69555(19) -3.1390(6) -21.65307(14)
C7_35 C -3.0081(2) -3.2621(7) -22.00083(15)
C8_35 C -3.9229(2) -3.8531(7) -21.11356(16)
C9_35 C -3.50637(19) -4.3162(7) -19.89982(14)
C10_35 C -2.15271(18) -4.2046(6) -19.49518(13)
C11_35 C 1.93122(18) -4.4590(6) -16.90369(13)
C12_35 C 1.89413(17) -3.8760(6) -18.18844(12)
C13_35 C 3.06442(18) -3.3521(6) -18.73546(13)
H1_35 H -2.2911 -5.0764 -17.6477
H4_35 H 0.7320 -3.0562 -20.5774
H6_35 H -1.1004 -2.7449 -22.2489
H7_35 H -3.2985 -2.9540 -22.8282
H8_35 H -4.8183 -3.9288 -21.3556
H9_35 H -4.1223 -4.7127 -19.3263
H13_35 H 3.0610 -2.9587 -19.5775
S1_36 S 5.80931(5) -2.85582(15) -18.51334(3)
C1_36 C 7.86271(18) -3.2203(6) -16.65993(14)
C2_36 C 6.54606(18) -3.3702(6) -17.00716(13)
C3_36 C 5.60282(17) -3.9734(6) -16.12460(13)
C4_36 C 6.03858(18) -4.4279(6) -14.89725(13)
C5_36 C 7.38759(18) -4.2874(6) -14.50239(13)
C6_36 C 7.86086(19) -4.7510(6) -13.24450(14)
C7_36 C 9.1734(2) -4.6279(7) -12.89675(15)
C8_36 C 10.0882(2) -4.0369(7) -13.78402(16)
C9_36 C 9.67169(19) -3.5738(7) -14.99776(14)
C10_36 C 8.31803(18) -3.6854(6) -15.40239(13)
C11_36 C 4.23409(18) -3.4310(6) -17.99389(13)
C12_36 C 4.27118(17) -4.0140(6) -16.70913(12)
C13_36 C 3.10089(18) -4.5379(6) -16.16211(13)
H1_36 H 8.4564 -2.8136 -17.2499
H4_36 H 5.4333 -4.8338 -14.3202
H6_36 H 7.2657 -5.1451 -12.6486
H7_36 H 9.4638 -4.9360 -12.0693
H8_36 H 10.9836 -3.9612 -13.5420
H9_36 H 10.2876 -3.1773 -15.5713
H13_36 H 3.1044 -4.9312 -15.3200
S1_37 S -2.72665(5) -5.03418(15) 1.06455(3)
C1_37 C -4.78005(18) -4.6697(6) -0.78886(14)
C2_37 C -3.46340(18) -4.5198(6) -0.44163(13)
C3_37 C -2.52016(17) -3.9166(6) -1.32419(13)
C4_37 C -2.95592(18) -3.4621(6) -2.55154(13)
C5_37 C -4.30493(18) -3.6026(6) -2.94640(13)
C6_37 C -4.77821(19) -3.1390(6) -4.20429(14)
C7_37 C -6.0908(2) -3.2621(7) -4.55204(15)
C8_37 C -7.0056(2) -3.8531(7) -3.66477(16)
C9_37 C -6.58903(19) -4.3162(7) -2.45103(14)
C10_37 C -5.23537(18) -4.2046(6) -2.04639(13)
C11_37 C -1.15144(18) -4.4590(6) 0.54510(13)
C12_37 C -1.18853(17) -3.8760(6) -0.73965(12)
C13_37 C -0.01824(18) -3.3521(6) -1.28667(13)
H1_37 H -5.3737 -5.0764 -0.1989
H4_37 H -2.3506 -3.0562 -3.1286
H6_37 H -4.1831 -2.7449 -4.8002
H7_37 H -6.3811 -2.9540 -5.3795
H8_37 H -7.9010 -3.9288 -3.9068
H9_37 H -7.2050 -4.7127 -1.8775
H13_37 H -0.0217 -2.9587 -2.1288
S1_38 S 2.72665(5) -2.85582(15) -1.06455(3)
C1_38 C 4.78005(18) -3.2203(6) 0.78886(14)
C2_38 C 3.46340(18) -3.3702(6) 0.44163(13)
C3_38 C 2.52016(17) -3.9734(6) 1.32419(13)
C4_38 C 2.95592(18) -4.4279(6) 2.55154(13)
C5_38 C 4.30493(18) -4.2874(6) 2.94640(13)
C6_38 C 4.77821(19) -4.7510(6) 4.20429(14)
C7_38 C 6.0908(2) -4.6279(7) 4.55204(15)
C8_38 C 7.0056(2) -4.0369(7) 3.66477(16)
C9_38 C 6.58903(19) -3.5738(7) 2.45103(14)
C10_38 C 5.23537(18) -3.6854(6) 2.04639(13)
C11_38 C 1.15144(18) -3.4310(6) -0.54510(13)
C12_38 C 1.18853(17) -4.0140(6) 0.73965(12)
C13_38 C 0.01824(18) -4.5379(6) 1.28667(13)
H1_38 H 5.3737 -2.8136 0.1989
H4_38 H 2.3506 -4.8338 3.1286
H6_38 H 4.1831 -5.1451 4.8002
H7_38 H 6.3811 -4.9360 5.3795
H8_38 H 7.9010 -3.9612 3.9068
H9_38 H 7.2050 -3.1773 1.8775
H13_38 H 0.0217 -4.9312 2.1288
S1_39 S -5.80931(5) -5.03418(15) 18.51334(3)
C1_39 C -7.86271(18) -4.6697(6) 16.65993(14)
C2_39 C -6.54606(18) -4.5198(6) 17.00716(13)
C3_39 C -5.60282(17) -3.9166(6) 16.12460(13)
C4_39 C -6.03858(18) -3.4621(6) 14.89725(13)
C5_39 C -7.38759(18) -3.6026(6) 14.50239(13)
C6_39 C -7.86086(19) -3.1390(6) 13.24450(14)
C7_39 C -9.1734(2) -3.2621(7) 12.89675(15)
C8_39 C -10.0882(2) -3.8531(7) 13.78402(16)
C9_39 C -9.67169(19) -4.3162(7) 14.99776(14)
C10_39 C -8.31803(18) -4.2046(6) 15.40239(13)
C11_39 C -4.23409(18) -4.4590(6) 17.99389(13)
C12_39 C -4.27118(17) -3.8760(6) 16.70913(12)
C13_39 C -3.10089(18) -3.3521(6) 16.16211(13)
H1_39 H -8.4564 -5.0764 17.2499
H4_39 H -5.4333 -3.0562 14.3202
H6_39 H -7.2657 -2.7449 12.6486
H7_39 H -9.4638 -2.9540 12.0693
H8_39 H -10.9836 -3.9288 13.5420
H9_39 H -10.2876 -4.7127 15.5713
H13_39 H -3.1044 -2.9587 15.3200
S1_40 S -0.35601(5) -2.85582(15) 16.38424(3)
C1_40 C 1.69739(18) -3.2203(6) 18.23765(14)
C2_40 C 0.38074(18) -3.3702(6) 17.89042(13)
C3_40 C -0.56249(17) -3.9734(6) 18.77298(13)
C4_40 C -0.12673(18) -4.4279(6) 20.00032(13)
C5_40 C 1.22228(18) -4.2874(6) 20.39519(13)
C6_40 C 1.69555(19) -4.7510(6) 21.65307(14)
C7_40 C 3.0081(2) -4.6279(7) 22.00083(15)
C8_40 C 3.9229(2) -4.0369(7) 21.11356(16)
C9_40 C 3.50637(19) -3.5738(7) 19.89982(14)
C10_40 C 2.15271(18) -3.6854(6) 19.49518(13)
C11_40 C -1.93122(18) -3.4310(6) 16.90369(13)
C12_40 C -1.89413(17) -4.0140(6) 18.18844(12)
C13_40 C -3.06442(18) -4.5379(6) 18.73546(13)
H1_40 H 2.2911 -2.8136 17.6477
H4_40 H -0.7320 -4.8338 20.5774
H6_40 H 1.1004 -5.1451 22.2489
H7_40 H 3.2985 -4.9360 22.8282
H8_40 H 4.8183 -3.9612 21.3556
H9_40 H 4.1223 -3.1773 19.3263
H13_40 H -3.0610 -4.9312 19.5775
S1_41 S 0.35601(5) -1.08918(15) -16.38424(3)
C1_41 C -1.69739(18) -0.7247(6) -18.23765(14)
C2_41 C -0.38074(18) -0.5748(6) -17.89042(13)
C3_41 C 0.56249(17) 0.0284(6) -18.77298(13)
C4_41 C 0.12673(18) 0.4829(6) -20.00032(13)
C5_41 C -1.22228(18) 0.3424(6) -20.39519(13)
C6_41 C -1.69555(19) 0.8060(6) -21.65307(14)
C7_41 C -3.0081(2) 0.6829(7) -22.00083(15)
C8_41 C -3.9229(2) 0.0919(7) -21.11356(16)
C9_41 C -3.50637(19) -0.3712(7) -19.89982(14)
C10_41 C -2.15271(18) -0.2596(6) -19.49518(13)
C11_41 C 1.93122(18) -0.5140(6) -16.90369(13)
C12_41 C 1.89413(17) 0.0690(6) -18.18844(12)
C13_41 C 3.06442(18) 0.5929(6) -18.73546(13)
H1_41 H -2.2911 -1.1314 -17.6477
H4_41 H 0.7320 0.8888 -20.5774
H6_41 H -1.1004 1.2001 -22.2489
H7_41 H -3.2985 0.9910 -22.8282
H8_41 H -4.8183 0.0162 -21.3556
H9_41 H -4.1223 -0.7677 -19.3263
H13_41 H 3.0610 0.9862 -19.5775
S1_42 S 5.80931(5) 1.08918(15) -18.51334(3)
C1_42 C 7.86271(18) 0.7247(6) -16.65993(14)
C2_42 C 6.54606(18) 0.5748(6) -17.00716(13)
C3_42 C 5.60282(17) -0.0284(6) -16.12460(13)
C4_42 C 6.03858(18) -0.4829(6) -14.89725(13)
C5_42 C 7.38759(18) -0.3424(6) -14.50239(13)
C6_42 C 7.86086(19) -0.8060(6) -13.24450(14)
C7_42 C 9.1734(2) -0.6829(7) -12.89675(15)
C8_42 C 10.0882(2) -0.0919(7) -13.78402(16)
C9_42 C 9.67169(19) 0.3712(7) -14.99776(14)
C10_42 C 8.31803(18) 0.2596(6) -15.40239(13)
C11_42 C 4.23409(18) 0.5140(6) -17.99389(13)
C12_42 C 4.27118(17) -0.0690(6) -16.70913(12)
C13_42 C 3.10089(18) -0.5929(6) -16.16211(13)
H1_42 H 8.4564 1.1314 -17.2499
H4_42 H 5.4333 -0.8888 -14.3202
H6_42 H 7.2657 -1.2001 -12.6486
H7_42 H 9.4638 -0.9910 -12.0693
H8_42 H 10.9836 -0.0162 -13.5420
H9_42 H 10.2876 0.7677 -15.5713
H13_42 H 3.1044 -0.9863 -15.3200
S1_43 S -2.72665(5) -1.08918(15) 1.06455(3)
C1_43 C -4.78005(18) -0.7247(6) -0.78886(14)
C2_43 C -3.46340(18) -0.5748(6) -0.44163(13)
C3_43 C -2.52016(17) 0.0284(6) -1.32419(13)
C4_43 C -2.95592(18) 0.4829(6) -2.55154(13)
C5_43 C -4.30493(18) 0.3424(6) -2.94640(13)
C6_43 C -4.77821(19) 0.8060(6) -4.20429(14)
C7_43 C -6.0908(2) 0.6829(7) -4.55204(15)
C8_43 C -7.0056(2) 0.0919(7) -3.66477(16)
C9_43 C -6.58903(19) -0.3712(7) -2.45103(14)
C10_43 C -5.23537(18) -0.2596(6) -2.04639(13)
C11_43 C -1.15144(18) -0.5140(6) 0.54510(13)
C12_43 C -1.18853(17) 0.0690(6) -0.73965(12)
C13_43 C -0.01824(18) 0.5929(6) -1.28667(13)
H1_43 H -5.3737 -1.1314 -0.1989
H4_43 H -2.3506 0.8888 -3.1286
H6_43 H -4.1831 1.2001 -4.8002
H7_43 H -6.3811 0.9910 -5.3795
H8_43 H -7.9010 0.0162 -3.9068
H9_43 H -7.2050 -0.7677 -1.8775
H13_43 H -0.0217 0.9862 -2.1288
S1_44 S 2.72665(5) 1.08918(15) -1.06455(3)
C1_44 C 4.78005(18) 0.7247(6) 0.78886(14)
C2_44 C 3.46340(18) 0.5748(6) 0.44163(13)
C3_44 C 2.52016(17) -0.0284(6) 1.32419(13)
C4_44 C 2.95592(18) -0.4829(6) 2.55154(13)
C5_44 C 4.30493(18) -0.3424(6) 2.94640(13)
C6_44 C 4.77821(19) -0.8060(6) 4.20429(14)
C7_44 C 6.0908(2) -0.6829(7) 4.55204(15)
C8_44 C 7.0056(2) -0.0919(7) 3.66477(16)
C9_44 C 6.58903(19) 0.3712(7) 2.45103(14)
C10_44 C 5.23537(18) 0.2596(6) 2.04639(13)
C11_44 C 1.15144(18) 0.5140(6) -0.54510(13)
C12_44 C 1.18853(17) -0.0690(6) 0.73965(12)
C13_44 C 0.01824(18) -0.5929(6) 1.28667(13)
H1_44 H 5.3737 1.1314 0.1989
H4_44 H 2.3506 -0.8888 3.1286
H6_44 H 4.1831 -1.2001 4.8002
H7_44 H 6.3811 -0.9910 5.3795
H8_44 H 7.9010 -0.0162 3.9068
H9_44 H 7.2050 0.7677 1.8775
H13_44 H 0.0217 -0.9862 2.1288
S1_45 S -5.80931(5) -1.08918(15) 18.51334(3)
C1_45 C -7.86271(18) -0.7247(6) 16.65993(14)
C2_45 C -6.54606(18) -0.5748(6) 17.00716(13)
C3_45 C -5.60282(17) 0.0284(6) 16.12460(13)
C4_45 C -6.03858(18) 0.4829(6) 14.89725(13)
C5_45 C -7.38759(18) 0.3424(6) 14.50239(13)
C6_45 C -7.86086(19) 0.8060(6) 13.24450(14)
C7_45 C -9.1734(2) 0.6829(7) 12.89675(15)
C8_45 C -10.0882(2) 0.0919(7) 13.78402(16)
C9_45 C -9.67169(19) -0.3712(7) 14.99776(14)
C10_45 C -8.31803(18) -0.2596(6) 15.40239(13)
C11_45 C -4.23409(18) -0.5140(6) 17.99389(13)
C12_45 C -4.27118(17) 0.0690(6) 16.70913(12)
C13_45 C -3.10089(18) 0.5929(6) 16.16211(13)
H1_45 H -8.4564 -1.1314 17.2499
H4_45 H -5.4333 0.8888 14.3202
H6_45 H -7.2657 1.2001 12.6486
H7_45 H -9.4638 0.9910 12.0693
H8_45 H -10.9836 0.0162 13.5420
H9_45 H -10.2876 -0.7677 15.5713
H13_45 H -3.1044 0.9863 15.3200
S1_46 S -0.35601(5) 1.08918(15) 16.38424(3)
C1_46 C 1.69739(18) 0.7247(6) 18.23765(14)
C2_46 C 0.38074(18) 0.5748(6) 17.89042(13)
C3_46 C -0.56249(17) -0.0284(6) 18.77298(13)
C4_46 C -0.12673(18) -0.4829(6) 20.00032(13)
C5_46 C 1.22228(18) -0.3424(6) 20.39519(13)
C6_46 C 1.69555(19) -0.8060(6) 21.65307(14)
C7_46 C 3.0081(2) -0.6829(7) 22.00083(15)
C8_46 C 3.9229(2) -0.0919(7) 21.11356(16)
C9_46 C 3.50637(19) 0.3712(7) 19.89982(14)
C10_46 C 2.15271(18) 0.2596(6) 19.49518(13)
C11_46 C -1.93122(18) 0.5140(6) 16.90369(13)
C12_46 C -1.89413(17) -0.0690(6) 18.18844(12)
C13_46 C -3.06442(18) -0.5929(6) 18.73546(13)
H1_46 H 2.2911 1.1314 17.6477
H4_46 H -0.7320 -0.8888 20.5774
H6_46 H 1.1004 -1.2001 22.2489
H7_46 H 3.2985 -0.9910 22.8282
H8_46 H 4.8183 -0.0162 21.3556
H9_46 H 4.1223 0.7677 19.3263
H13_46 H -3.0610 -0.9862 19.5775
S1_47 S 0.35601(5) 2.85582(15) -16.38424(3)
C1_47 C -1.69739(18) 3.2203(6) -18.23765(14)
C2_47 C -0.38074(18) 3.3702(6) -17.89042(13)
C3_47 C 0.56249(17) 3.9734(6) -18.77298(13)
C4_47 C 0.12673(18) 4.4279(6) -20.00032(13)
C5_47 C -1.22228(18) 4.2874(6) -20.39519(13)
C6_47 C -1.69555(19) 4.7510(6) -21.65307(14)
C7_47 C -3.0081(2) 4.6279(7) -22.00083(15)
C8_47 C -3.9229(2) 4.0369(7) -21.11356(16)
C9_47 C -3.50637(19) 3.5738(7) -19.89982(14)
C10_47 C -2.15271(18) 3.6854(6) -19.49518(13)
C11_47 C 1.93122(18) 3.4310(6) -16.90369(13)
C12_47 C 1.89413(17) 4.0140(6) -18.18844(12)
C13_47 C 3.06442(18) 4.5379(6) -18.73546(13)
H1_47 H -2.2911 2.8136 -17.6477
H4_47 H 0.7320 4.8338 -20.5774
H6_47 H -1.1004 5.1451 -22.2489
H7_47 H -3.2985 4.9360 -22.8282
H8_47 H -4.8183 3.9612 -21.3556
H9_47 H -4.1223 3.1773 -19.3263
H13_47 H 3.0610 4.9312 -19.5775
S1_48 S 5.80931(5) 5.03418(15) -18.51334(3)
C1_48 C 7.86271(18) 4.6697(6) -16.65993(14)
C2_48 C 6.54606(18) 4.5198(6) -17.00716(13)
C3_48 C 5.60282(17) 3.9166(6) -16.12460(13)
C4_48 C 6.03858(18) 3.4621(6) -14.89725(13)
C5_48 C 7.38759(18) 3.6026(6) -14.50239(13)
C6_48 C 7.86086(19) 3.1390(6) -13.24450(14)
C7_48 C 9.1734(2) 3.2621(7) -12.89675(15)
C8_48 C 10.0882(2) 3.8531(7) -13.78402(16)
C9_48 C 9.67169(19) 4.3162(7) -14.99776(14)
C10_48 C 8.31803(18) 4.2046(6) -15.40239(13)
C11_48 C 4.23409(18) 4.4590(6) -17.99389(13)
C12_48 C 4.27118(17) 3.8760(6) -16.70913(12)
C13_48 C 3.10089(18) 3.3521(6) -16.16211(13)
H1_48 H 8.4564 5.0764 -17.2499
H4_48 H 5.4333 3.0562 -14.3202
H6_48 H 7.2657 2.7449 -12.6486
H7_48 H 9.4638 2.9540 -12.0693
H8_48 H 10.9836 3.9288 -13.5420
H9_48 H 10.2876 4.7127 -15.5713
H13_48 H 3.1044 2.9587 -15.3200
S1_49 S -2.72665(5) 2.85582(15) 1.06455(3)
C1_49 C -4.78005(18) 3.2203(6) -0.78886(14)
C2_49 C -3.46340(18) 3.3702(6) -0.44163(13)
C3_49 C -2.52016(17) 3.9734(6) -1.32419(13)
C4_49 C -2.95592(18) 4.4279(6) -2.55154(13)
C5_49 C -4.30493(18) 4.2874(6) -2.94640(13)
C6_49 C -4.77821(19) 4.7510(6) -4.20429(14)
C7_49 C -6.0908(2) 4.6279(7) -4.55204(15)
C8_49 C -7.0056(2) 4.0369(7) -3.66477(16)
C9_49 C -6.58903(19) 3.5738(7) -2.45103(14)
C10_49 C -5.23537(18) 3.6854(6) -2.04639(13)
C11_49 C -1.15144(18) 3.4310(6) 0.54510(13)
C12_49 C -1.18853(17) 4.0140(6) -0.73965(12)
C13_49 C -0.01824(18) 4.5379(6) -1.28667(13)
H1_49 H -5.3737 2.8136 -0.1989
H4_49 H -2.3506 4.8338 -3.1286
H6_49 H -4.1831 5.1451 -4.8002
H7_49 H -6.3811 4.9360 -5.3795
H8_49 H -7.9010 3.9612 -3.9068
H9_49 H -7.2050 3.1773 -1.8775
H13_49 H -0.0217 4.9312 -2.1288
S1_50 S 2.72665(5) 5.03418(15) -1.06455(3)
C1_50 C 4.78005(18) 4.6697(6) 0.78886(14)
C2_50 C 3.46340(18) 4.5198(6) 0.44163(13)
C3_50 C 2.52016(17) 3.9166(6) 1.32419(13)
C4_50 C 2.95592(18) 3.4621(6) 2.55154(13)
C5_50 C 4.30493(18) 3.6026(6) 2.94640(13)
C6_50 C 4.77821(19) 3.1390(6) 4.20429(14)
C7_50 C 6.0908(2) 3.2621(7) 4.55204(15)
C8_50 C 7.0056(2) 3.8531(7) 3.66477(16)
C9_50 C 6.58903(19) 4.3162(7) 2.45103(14)
C10_50 C 5.23537(18) 4.2046(6) 2.04639(13)
C11_50 C 1.15144(18) 4.4590(6) -0.54510(13)
C12_50 C 1.18853(17) 3.8760(6) 0.73965(12)
C13_50 C 0.01824(18) 3.3521(6) 1.28667(13)
H1_50 H 5.3737 5.0764 0.1989
H4_50 H 2.3506 3.0562 3.1286
H6_50 H 4.1831 2.7449 4.8002
H7_50 H 6.3811 2.9540 5.3795
H8_50 H 7.9010 3.9288 3.9068
H9_50 H 7.2050 4.7127 1.8775
H13_50 H 0.0217 2.9587 2.1288
S1_51 S -5.80931(5) 2.85582(15) 18.51334(3)
C1_51 C -7.86271(18) 3.2203(6) 16.65993(14)
C2_51 C -6.54606(18) 3.3702(6) 17.00716(13)
C3_51 C -5.60282(17) 3.9734(6) 16.12460(13)
C4_51 C -6.03858(18) 4.4279(6) 14.89725(13)
C5_51 C -7.38759(18) 4.2874(6) 14.50239(13)
C6_51 C -7.86086(19) 4.7510(6) 13.24450(14)
C7_51 C -9.1734(2) 4.6279(7) 12.89675(15)
C8_51 C -10.0882(2) 4.0369(7) 13.78402(16)
C9_51 C -9.67169(19) 3.5738(7) 14.99776(14)
C10_51 C -8.31803(18) 3.6854(6) 15.40239(13)
C11_51 C -4.23409(18) 3.4310(6) 17.99389(13)
C12_51 C -4.27118(17) 4.0140(6) 16.70913(12)
C13_51 C -3.10089(18) 4.5379(6) 16.16211(13)
H1_51 H -8.4564 2.8136 17.2499
H4_51 H -5.4333 4.8338 14.3202
H6_51 H -7.2657 5.1451 12.6486
H7_51 H -9.4638 4.9360 12.0693
H8_51 H -10.9836 3.9612 13.5420
H9_51 H -10.2876 3.1773 15.5713
H13_51 H -3.1044 4.9312 15.3200
S1_52 S -0.35601(5) 5.03418(15) 16.38424(3)
C1_52 C 1.69739(18) 4.6697(6) 18.23765(14)
C2_52 C 0.38074(18) 4.5198(6) 17.89042(13)
C3_52 C -0.56249(17) 3.9166(6) 18.77298(13)
C4_52 C -0.12673(18) 3.4621(6) 20.00032(13)
C5_52 C 1.22228(18) 3.6026(6) 20.39519(13)
C6_52 C 1.69555(19) 3.1390(6) 21.65307(14)
C7_52 C 3.0081(2) 3.2621(7) 22.00083(15)
C8_52 C 3.9229(2) 3.8531(7) 21.11356(16)
C9_52 C 3.50637(19) 4.3162(7) 19.89982(14)
C10_52 C 2.15271(18) 4.2046(6) 19.49518(13)
C11_52 C -1.93122(18) 4.4590(6) 16.90369(13)
C12_52 C -1.89413(17) 3.8760(6) 18.18844(12)
C13_52 C -3.06442(18) 3.3521(6) 18.73546(13)
H1_52 H 2.2911 5.0764 17.6477
H4_52 H -0.7320 3.0562 20.5774
H6_52 H 1.1004 2.7449 22.2489
H7_52 H 3.2985 2.9540 22.8282
H8_52 H 4.8183 3.9288 21.3556
H9_52 H 4.1223 4.7127 19.3263
H13_52 H -3.0610 2.9587 19.5775
S1_53 S 12.86501(5) -5.03418(15) -16.38424(3)
C1_53 C 10.81161(18) -4.6697(6) -18.23765(14)
C2_53 C 12.12826(18) -4.5198(6) -17.89042(13)
C3_53 C 13.07149(17) -3.9166(6) -18.77298(13)
C4_53 C 12.63573(18) -3.4621(6) -20.00032(13)
C5_53 C 11.28672(18) -3.6026(6) -20.39519(13)
C6_53 C 10.81345(19) -3.1390(6) -21.65307(14)
C7_53 C 9.5009(2) -3.2621(7) -22.00083(15)
C8_53 C 8.5861(2) -3.8531(7) -21.11356(16)
C9_53 C 9.00263(19) -4.3162(7) -19.89982(14)
C10_53 C 10.35629(18) -4.2046(6) -19.49518(13)
C11_53 C 14.44022(18) -4.4590(6) -16.90369(13)
C12_53 C 14.40313(17) -3.8760(6) -18.18844(12)
C13_53 C 15.57342(18) -3.3521(6) -18.73546(13)
H1_53 H 10.2179 -5.0764 -17.6477
H4_53 H 13.2410 -3.0562 -20.5774
H6_53 H 11.4086 -2.7449 -22.2489
H7_53 H 9.2105 -2.9540 -22.8282
H8_53 H 7.6907 -3.9288 -21.3556
H9_53 H 8.3867 -4.7127 -19.3263
H13_53 H 15.5700 -2.9587 -19.5775
S1_54 S 18.31831(5) -2.85582(15) -18.51334(3)
C1_54 C 20.37171(18) -3.2203(6) -16.65993(14)
C2_54 C 19.05506(18) -3.3702(6) -17.00716(13)
C3_54 C 18.11182(17) -3.9734(6) -16.12460(13)
C4_54 C 18.54758(18) -4.4279(6) -14.89725(13)
C5_54 C 19.89659(18) -4.2874(6) -14.50239(13)
C6_54 C 20.36986(19) -4.7510(6) -13.24450(14)
C7_54 C 21.6824(2) -4.6279(7) -12.89675(15)
C8_54 C 22.5972(2) -4.0369(7) -13.78402(16)
C9_54 C 22.18069(19) -3.5738(7) -14.99776(14)
C10_54 C 20.82703(18) -3.6854(6) -15.40239(13)
C11_54 C 16.74309(18) -3.4310(6) -17.99389(13)
C12_54 C 16.78018(17) -4.0140(6) -16.70913(12)
C13_54 C 15.60989(18) -4.5379(6) -16.16211(13)
H1_54 H 20.9654 -2.8136 -17.2499
H4_54 H 17.9423 -4.8338 -14.3202
H6_54 H 19.7747 -5.1451 -12.6486
H7_54 H 21.9728 -4.9360 -12.0693
H8_54 H 23.4926 -3.9612 -13.5420
H9_54 H 22.7966 -3.1773 -15.5713
H13_54 H 15.6134 -4.9312 -15.3200
S1_55 S 9.78235(5) -5.03418(15) 1.06455(3)
C1_55 C 7.72895(18) -4.6697(6) -0.78886(14)
C2_55 C 9.04560(18) -4.5198(6) -0.44163(13)
C3_55 C 9.98884(17) -3.9166(6) -1.32419(13)
C4_55 C 9.55308(18) -3.4621(6) -2.55154(13)
C5_55 C 8.20407(18) -3.6026(6) -2.94640(13)
C6_55 C 7.73079(19) -3.1390(6) -4.20429(14)
C7_55 C 6.4182(2) -3.2621(7) -4.55204(15)
C8_55 C 5.5034(2) -3.8531(7) -3.66477(16)
C9_55 C 5.91997(19) -4.3162(7) -2.45103(14)
C10_55 C 7.27363(18) -4.2046(6) -2.04639(13)
C11_55 C 11.35756(18) -4.4590(6) 0.54510(13)
C12_55 C 11.32047(17) -3.8760(6) -0.73965(12)
C13_55 C 12.49076(18) -3.3521(6) -1.28667(13)
H1_55 H 7.1353 -5.0764 -0.1989
H4_55 H 10.1584 -3.0562 -3.1286
H6_55 H 8.3259 -2.7449 -4.8002
H7_55 H 6.1279 -2.9540 -5.3795
H8_55 H 4.6080 -3.9288 -3.9068
H9_55 H 5.3040 -4.7127 -1.8775
H13_55 H 12.4873 -2.9587 -2.1288
S1_56 S 15.23565(5) -2.85582(15) -1.06455(3)
C1_56 C 17.28905(18) -3.2203(6) 0.78886(14)
C2_56 C 15.97240(18) -3.3702(6) 0.44163(13)
C3_56 C 15.02916(17) -3.9734(6) 1.32419(13)
C4_56 C 15.46492(18) -4.4279(6) 2.55154(13)
C5_56 C 16.81393(18) -4.2874(6) 2.94640(13)
C6_56 C 17.28721(19) -4.7510(6) 4.20429(14)
C7_56 C 18.5998(2) -4.6279(7) 4.55204(15)
C8_56 C 19.5146(2) -4.0369(7) 3.66477(16)
C9_56 C 19.09803(19) -3.5738(7) 2.45103(14)
C10_56 C 17.74437(18) -3.6854(6) 2.04639(13)
C11_56 C 13.66044(18) -3.4310(6) -0.54510(13)
C12_56 C 13.69753(17) -4.0140(6) 0.73965(12)
C13_56 C 12.52724(18) -4.5379(6) 1.28667(13)
H1_56 H 17.8827 -2.8136 0.1989
H4_56 H 14.8596 -4.8338 3.1286
H6_56 H 16.6921 -5.1451 4.8002
H7_56 H 18.8901 -4.9360 5.3795
H8_56 H 20.4100 -3.9612 3.9068
H9_56 H 19.7140 -3.1773 1.8775
H13_56 H 12.5307 -4.9312 2.1288
S1_57 S 6.69969(5) -5.03418(15) 18.51334(3)
C1_57 C 4.64629(18) -4.6697(6) 16.65993(14)
C2_57 C 5.96294(18) -4.5198(6) 17.00716(13)
C3_57 C 6.90618(17) -3.9166(6) 16.12460(13)
C4_57 C 6.47042(18) -3.4621(6) 14.89725(13)
C5_57 C 5.12141(18) -3.6026(6) 14.50239(13)
C6_57 C 4.64814(19) -3.1390(6) 13.24450(14)
C7_57 C 3.3356(2) -3.2621(7) 12.89675(15)
C8_57 C 2.4208(2) -3.8531(7) 13.78402(16)
C9_57 C 2.83731(19) -4.3162(7) 14.99776(14)
C10_57 C 4.19097(18) -4.2046(6) 15.40239(13)
C11_57 C 8.27491(18) -4.4590(6) 17.99389(13)
C12_57 C 8.23782(17) -3.8760(6) 16.70913(12)
C13_57 C 9.40811(18) -3.3521(6) 16.16211(13)
H1_57 H 4.0526 -5.0764 17.2499
H4_57 H 7.0757 -3.0562 14.3202
H6_57 H 5.2433 -2.7449 12.6486
H7_57 H 3.0452 -2.9540 12.0693
H8_57 H 1.5254 -3.9288 13.5420
H9_57 H 2.2214 -4.7127 15.5713
H13_57 H 9.4046 -2.9587 15.3200
S1_58 S 12.15299(5) -2.85582(15) 16.38424(3)
C1_58 C 14.20639(18) -3.2203(6) 18.23765(14)
C2_58 C 12.88974(18) -3.3702(6) 17.89042(13)
C3_58 C 11.94651(17) -3.9734(6) 18.77298(13)
C4_58 C 12.38227(18) -4.4279(6) 20.00032(13)
C5_58 C 13.73128(18) -4.2874(6) 20.39519(13)
C6_58 C 14.20455(19) -4.7510(6) 21.65307(14)
C7_58 C 15.5171(2) -4.6279(7) 22.00083(15)
C8_58 C 16.4319(2) -4.0369(7) 21.11356(16)
C9_58 C 16.01537(19) -3.5738(7) 19.89982(14)
C10_58 C 14.66171(18) -3.6854(6) 19.49518(13)
C11_58 C 10.57778(18) -3.4310(6) 16.90369(13)
C12_58 C 10.61487(17) -4.0140(6) 18.18844(12)
C13_58 C 9.44458(18) -4.5379(6) 18.73546(13)
H1_58 H 14.8001 -2.8136 17.6477
H4_58 H 11.7770 -4.8338 20.5774
H6_58 H 13.6094 -5.1451 22.2489
H7_58 H 15.8075 -4.9360 22.8282
H8_58 H 17.3273 -3.9612 21.3556
H9_58 H 16.6313 -3.1773 19.3263
H13_58 H 9.4480 -4.9312 19.5775
S1_59 S 12.86501(5) -1.08918(15) -16.38424(3)
C1_59 C 10.81161(18) -0.7247(6) -18.23765(14)
C2_59 C 12.12826(18) -0.5748(6) -17.89042(13)
C3_59 C 13.07149(17) 0.0284(6) -18.77298(13)
C4_59 C 12.63573(18) 0.4829(6) -20.00032(13)
C5_59 C 11.28672(18) 0.3424(6) -20.39519(13)
C6_59 C 10.81345(19) 0.8060(6) -21.65307(14)
C7_59 C 9.5009(2) 0.6829(7) -22.00083(15)
C8_59 C 8.5861(2) 0.0919(7) -21.11356(16)
C9_59 C 9.00263(19) -0.3712(7) -19.89982(14)
C10_59 C 10.35629(18) -0.2596(6) -19.49518(13)
C11_59 C 14.44022(18) -0.5140(6) -16.90369(13)
C12_59 C 14.40313(17) 0.0690(6) -18.18844(12)
C13_59 C 15.57342(18) 0.5929(6) -18.73546(13)
H1_59 H 10.2179 -1.1314 -17.6477
H4_59 H 13.2410 0.8888 -20.5774
H6_59 H 11.4086 1.2001 -22.2489
H7_59 H 9.2105 0.9910 -22.8282
H8_59 H 7.6907 0.0162 -21.3556
H9_59 H 8.3867 -0.7677 -19.3263
H13_59 H 15.5700 0.9862 -19.5775
S1_60 S 18.31831(5) 1.08918(15) -18.51334(3)
C1_60 C 20.37171(18) 0.7247(6) -16.65993(14)
C2_60 C 19.05506(18) 0.5748(6) -17.00716(13)
C3_60 C 18.11182(17) -0.0284(6) -16.12460(13)
C4_60 C 18.54758(18) -0.4829(6) -14.89725(13)
C5_60 C 19.89659(18) -0.3424(6) -14.50239(13)
C6_60 C 20.36986(19) -0.8060(6) -13.24450(14)
C7_60 C 21.6824(2) -0.6829(7) -12.89675(15)
C8_60 C 22.5972(2) -0.0919(7) -13.78402(16)
C9_60 C 22.18069(19) 0.3712(7) -14.99776(14)
C10_60 C 20.82703(18) 0.2596(6) -15.40239(13)
C11_60 C 16.74309(18) 0.5140(6) -17.99389(13)
C12_60 C 16.78018(17) -0.0690(6) -16.70913(12)
C13_60 C 15.60989(18) -0.5929(6) -16.16211(13)
H1_60 H 20.9654 1.1314 -17.2499
H4_60 H 17.9423 -0.8888 -14.3202
H6_60 H 19.7747 -1.2001 -12.6486
H7_60 H 21.9728 -0.9910 -12.0693
H8_60 H 23.4926 -0.0162 -13.5420
H9_60 H 22.7966 0.7677 -15.5713
H13_60 H 15.6134 -0.9863 -15.3200
S1_61 S 9.78235(5) -1.08918(15) 1.06455(3)
C1_61 C 7.72895(18) -0.7247(6) -0.78886(14)
C2_61 C 9.04560(18) -0.5748(6) -0.44163(13)
C3_61 C 9.98884(17) 0.0284(6) -1.32419(13)
C4_61 C 9.55308(18) 0.4829(6) -2.55154(13)
C5_61 C 8.20407(18) 0.3424(6) -2.94640(13)
C6_61 C 7.73079(19) 0.8060(6) -4.20429(14)
C7_61 C 6.4182(2) 0.6829(7) -4.55204(15)
C8_61 C 5.5034(2) 0.0919(7) -3.66477(16)
C9_61 C 5.91997(19) -0.3712(7) -2.45103(14)
C10_61 C 7.27363(18) -0.2596(6) -2.04639(13)
C11_61 C 11.35756(18) -0.5140(6) 0.54510(13)
C12_61 C 11.32047(17) 0.0690(6) -0.73965(12)
C13_61 C 12.49076(18) 0.5929(6) -1.28667(13)
H1_61 H 7.1353 -1.1314 -0.1989
H4_61 H 10.1584 0.8888 -3.1286
H6_61 H 8.3259 1.2001 -4.8002
H7_61 H 6.1279 0.9910 -5.3795
H8_61 H 4.6080 0.0162 -3.9068
H9_61 H 5.3040 -0.7677 -1.8775
H13_61 H 12.4873 0.9862 -2.1288
S1_62 S 15.23565(5) 1.08918(15) -1.06455(3)
C1_62 C 17.28905(18) 0.7247(6) 0.78886(14)
C2_62 C 15.97240(18) 0.5748(6) 0.44163(13)
C3_62 C 15.02916(17) -0.0284(6) 1.32419(13)
C4_62 C 15.46492(18) -0.4829(6) 2.55154(13)
C5_62 C 16.81393(18) -0.3424(6) 2.94640(13)
C6_62 C 17.28721(19) -0.8060(6) 4.20429(14)
C7_62 C 18.5998(2) -0.6829(7) 4.55204(15)
C8_62 C 19.5146(2) -0.0919(7) 3.66477(16)
C9_62 C 19.09803(19) 0.3712(7) 2.45103(14)
C10_62 C 17.74437(18) 0.2596(6) 2.04639(13)
C11_62 C 13.66044(18) 0.5140(6) -0.54510(13)
C12_62 C 13.69753(17) -0.0690(6) 0.73965(12)
C13_62 C 12.52724(18) -0.5929(6) 1.28667(13)
H1_62 H 17.8827 1.1314 0.1989
H4_62 H 14.8596 -0.8888 3.1286
H6_62 H 16.6921 -1.2001 4.8002
H7_62 H 18.8901 -0.9910 5.3795
H8_62 H 20.4100 -0.0162 3.9068
H9_62 H 19.7140 0.7677 1.8775
H13_62 H 12.5307 -0.9862 2.1288
S1_63 S 6.69969(5) -1.08918(15) 18.51334(3)
C1_63 C 4.64629(18) -0.7247(6) 16.65993(14)
C2_63 C 5.96294(18) -0.5748(6) 17.00716(13)
C3_63 C 6.90618(17) 0.0284(6) 16.12460(13)
C4_63 C 6.47042(18) 0.4829(6) 14.89725(13)
C5_63 C 5.12141(18) 0.3424(6) 14.50239(13)
C6_63 C 4.64814(19) 0.8060(6) 13.24450(14)
C7_63 C 3.3356(2) 0.6829(7) 12.89675(15)
C8_63 C 2.4208(2) 0.0919(7) 13.78402(16)
C9_63 C 2.83731(19) -0.3712(7) 14.99776(14)
C10_63 C 4.19097(18) -0.2596(6) 15.40239(13)
C11_63 C 8.27491(18) -0.5140(6) 17.99389(13)
C12_63 C 8.23782(17) 0.0690(6) 16.70913(12)
C13_63 C 9.40811(18) 0.5929(6) 16.16211(13)
H1_63 H 4.0526 -1.1314 17.2499
H4_63 H 7.0757 0.8888 14.3202
H6_63 H 5.2433 1.2001 12.6486
H7_63 H 3.0452 0.9910 12.0693
H8_63 H 1.5254 0.0162 13.5420
H9_63 H 2.2214 -0.7677 15.5713
H13_63 H 9.4046 0.9863 15.3200
S1_64 S 12.15299(5) 1.08918(15) 16.38424(3)
C1_64 C 14.20639(18) 0.7247(6) 18.23765(14)
C2_64 C 12.88974(18) 0.5748(6) 17.89042(13)
C3_64 C 11.94651(17) -0.0284(6) 18.77298(13)
C4_64 C 12.38227(18) -0.4829(6) 20.00032(13)
C5_64 C 13.73128(18) -0.3424(6) 20.39519(13)
C6_64 C 14.20455(19) -0.8060(6) 21.65307(14)
C7_64 C 15.5171(2) -0.6829(7) 22.00083(15)
C8_64 C 16.4319(2) -0.0919(7) 21.11356(16)
C9_64 C 16.01537(19) 0.3712(7) 19.89982(14)
C10_64 C 14.66171(18) 0.2596(6) 19.49518(13)
C11_64 C 10.57778(18) 0.5140(6) 16.90369(13)
C12_64 C 10.61487(17) -0.0690(6) 18.18844(12)
C13_64 C 9.44458(18) -0.5929(6) 18.73546(13)
H1_64 H 14.8001 1.1314 17.6477
H4_64 H 11.7770 -0.8888 20.5774
H6_64 H 13.6094 -1.2001 22.2489
H7_64 H 15.8075 -0.9910 22.8282
H8_64 H 17.3273 -0.0162 21.3556
H9_64 H 16.6313 0.7677 19.3263
H13_64 H 9.4480 -0.9862 19.5775
S1_65 S 12.86501(5) 2.85582(15) -16.38424(3)
C1_65 C 10.81161(18) 3.2203(6) -18.23765(14)
C2_65 C 12.12826(18) 3.3702(6) -17.89042(13)
C3_65 C 13.07149(17) 3.9734(6) -18.77298(13)
C4_65 C 12.63573(18) 4.4279(6) -20.00032(13)
C5_65 C 11.28672(18) 4.2874(6) -20.39519(13)
C6_65 C 10.81345(19) 4.7510(6) -21.65307(14)
C7_65 C 9.5009(2) 4.6279(7) -22.00083(15)
C8_65 C 8.5861(2) 4.0369(7) -21.11356(16)
C9_65 C 9.00263(19) 3.5738(7) -19.89982(14)
C10_65 C 10.35629(18) 3.6854(6) -19.49518(13)
C11_65 C 14.44022(18) 3.4310(6) -16.90369(13)
C12_65 C 14.40313(17) 4.0140(6) -18.18844(12)
C13_65 C 15.57342(18) 4.5379(6) -18.73546(13)
H1_65 H 10.2179 2.8136 -17.6477
H4_65 H 13.2410 4.8338 -20.5774
H6_65 H 11.4086 5.1451 -22.2489
H7_65 H 9.2105 4.9360 -22.8282
H8_65 H 7.6907 3.9612 -21.3556
H9_65 H 8.3867 3.1773 -19.3263
H13_65 H 15.5700 4.9312 -19.5775
S1_66 S 18.31831(5) 5.03418(15) -18.51334(3)
C1_66 C 20.37171(18) 4.6697(6) -16.65993(14)
C2_66 C 19.05506(18) 4.5198(6) -17.00716(13)
C3_66 C 18.11182(17) 3.9166(6) -16.12460(13)
C4_66 C 18.54758(18) 3.4621(6) -14.89725(13)
C5_66 C 19.89659(18) 3.6026(6) -14.50239(13)
C6_66 C 20.36986(19) 3.1390(6) -13.24450(14)
C7_66 C 21.6824(2) 3.2621(7) -12.89675(15)
C8_66 C 22.5972(2) 3.8531(7) -13.78402(16)
C9_66 C 22.18069(19) 4.3162(7) -14.99776(14)
C10_66 C 20.82703(18) 4.2046(6) -15.40239(13)
C11_66 C 16.74309(18) 4.4590(6) -17.99389(13)
C12_66 C 16.78018(17) 3.8760(6) -16.70913(12)
C13_66 C 15.60989(18) 3.3521(6) -16.16211(13)
H1_66 H 20.9654 5.0764 -17.2499
H4_66 H 17.9423 3.0562 -14.3202
H6_66 H 19.7747 2.7449 -12.6486
H7_66 H 21.9728 2.9540 -12.0693
H8_66 H 23.4926 3.9288 -13.5420
H9_66 H 22.7966 4.7127 -15.5713
H13_66 H 15.6134 2.9587 -15.3200
S1_67 S 9.78235(5) 2.85582(15) 1.06455(3)
C1_67 C 7.72895(18) 3.2203(6) -0.78886(14)
C2_67 C 9.04560(18) 3.3702(6) -0.44163(13)
C3_67 C 9.98884(17) 3.9734(6) -1.32419(13)
C4_67 C 9.55308(18) 4.4279(6) -2.55154(13)
C5_67 C 8.20407(18) 4.2874(6) -2.94640(13)
C6_67 C 7.73079(19) 4.7510(6) -4.20429(14)
C7_67 C 6.4182(2) 4.6279(7) -4.55204(15)
C8_67 C 5.5034(2) 4.0369(7) -3.66477(16)
C9_67 C 5.91997(19) 3.5738(7) -2.45103(14)
C10_67 C 7.27363(18) 3.6854(6) -2.04639(13)
C11_67 C 11.35756(18) 3.4310(6) 0.54510(13)
C12_67 C 11.32047(17) 4.0140(6) -0.73965(12)
C13_67 C 12.49076(18) 4.5379(6) -1.28667(13)
H1_67 H 7.1353 2.8136 -0.1989
H4_67 H 10.1584 4.8338 -3.1286
H6_67 H 8.3259 5.1451 -4.8002
H7_67 H 6.1279 4.9360 -5.3795
H8_67 H 4.6080 3.9612 -3.9068
H9_67 H 5.3040 3.1773 -1.8775
H13_67 H 12.4873 4.9312 -2.1288
S1_68 S 15.23565(5) 5.03418(15) -1.06455(3)
C1_68 C 17.28905(18) 4.6697(6) 0.78886(14)
C2_68 C 15.97240(18) 4.5198(6) 0.44163(13)
C3_68 C 15.02916(17) 3.9166(6) 1.32419(13)
C4_68 C 15.46492(18) 3.4621(6) 2.55154(13)
C5_68 C 16.81393(18) 3.6026(6) 2.94640(13)
C6_68 C 17.28721(19) 3.1390(6) 4.20429(14)
C7_68 C 18.5998(2) 3.2621(7) 4.55204(15)
C8_68 C 19.5146(2) 3.8531(7) 3.66477(16)
C9_68 C 19.09803(19) 4.3162(7) 2.45103(14)
C10_68 C 17.74437(18) 4.2046(6) 2.04639(13)
C11_68 C 13.66044(18) 4.4590(6) -0.54510(13)
C12_68 C 13.69753(17) 3.8760(6) 0.73965(12)
C13_68 C 12.52724(18) 3.3521(6) 1.28667(13)
H1_68 H 17.8827 5.0764 0.1989
H4_68 H 14.8596 3.0562 3.1286
H6_68 H 16.6921 2.7449 4.8002
H7_68 H 18.8901 2.9540 5.3795
H8_68 H 20.4100 3.9288 3.9068
H9_68 H 19.7140 4.7127 1.8775
H13_68 H 12.5307 2.9587 2.1288
S1_69 S 6.69969(5) 2.85582(15) 18.51334(3)
C1_69 C 4.64629(18) 3.2203(6) 16.65993(14)
C2_69 C 5.96294(18) 3.3702(6) 17.00716(13)
C3_69 C 6.90618(17) 3.9734(6) 16.12460(13)
C4_69 C 6.47042(18) 4.4279(6) 14.89725(13)
C5_69 C 5.12141(18) 4.2874(6) 14.50239(13)
C6_69 C 4.64814(19) 4.7510(6) 13.24450(14)
C7_69 C 3.3356(2) 4.6279(7) 12.89675(15)
C8_69 C 2.4208(2) 4.0369(7) 13.78402(16)
C9_69 C 2.83731(19) 3.5738(7) 14.99776(14)
C10_69 C 4.19097(18) 3.6854(6) 15.40239(13)
C11_69 C 8.27491(18) 3.4310(6) 17.99389(13)
C12_69 C 8.23782(17) 4.0140(6) 16.70913(12)
C13_69 C 9.40811(18) 4.5379(6) 16.16211(13)
H1_69 H 4.0526 2.8136 17.2499
H4_69 H 7.0757 4.8338 14.3202
H6_69 H 5.2433 5.1451 12.6486
H7_69 H 3.0452 4.9360 12.0693
H8_69 H 1.5254 3.9612 13.5420
H9_69 H 2.2214 3.1773 15.5713
H13_69 H 9.4046 4.9312 15.3200
S1_70 S 12.15299(5) 5.03418(15) 16.38424(3)
C1_70 C 14.20639(18) 4.6697(6) 18.23765(14)
C2_70 C 12.88974(18) 4.5198(6) 17.89042(13)
C3_70 C 11.94651(17) 3.9166(6) 18.77298(13)
C4_70 C 12.38227(18) 3.4621(6) 20.00032(13)
C5_70 C 13.73128(18) 3.6026(6) 20.39519(13)
C6_70 C 14.20455(19) 3.1390(6) 21.65307(14)
C7_70 C 15.5171(2) 3.2621(7) 22.00083(15)
C8_70 C 16.4319(2) 3.8531(7) 21.11356(16)
C9_70 C 16.01537(19) 4.3162(7) 19.89982(14)
C10_70 C 14.66171(18) 4.2046(6) 19.49518(13)
C11_70 C 10.57778(18) 4.4590(6) 16.90369(13)
C12_70 C 10.61487(17) 3.8760(6) 18.18844(12)
C13_70 C 9.44458(18) 3.3521(6) 18.73546(13)
H1_70 H 14.8001 5.0764 17.6477
H4_70 H 11.7770 3.0562 20.5774
H6_70 H 13.6094 2.7449 22.2489
H7_70 H 15.8075 2.9540 22.8282
H8_70 H 17.3273 3.9288 21.3556
H9_70 H 16.6313 4.7127 19.3263
H13_70 H 9.4480 2.9587 19.5775
loop_
_geom_bond_atom_site_label_1
_geom_bond_atom_site_label_2
_geom_bond_site_symmetry_1
_geom_bond_site_symmetry_2
S1 C2 1_555 1_555
S1 C11 1_555 1_555
C1 C2 1_555 1_555
C1 C10 1_555 1_555
C1 H1 1_555 1_555
C2 C3 1_555 1_555
C3 C4 1_555 1_555
C3 C12 1_555 1_555
C4 C5 1_555 1_555
C4 H4 1_555 1_555
C5 C6 1_555 1_555
C5 C10 1_555 1_555
C6 C7 1_555 1_555
C6 H6 1_555 1_555
C7 C8 1_555 1_555
C7 H7 1_555 1_555
C8 C9 1_555 1_555
C8 H8 1_555 1_555
C9 C10 1_555 1_555
C9 H9 1_555 1_555
C11 C12 1_555 1_555
C11 C13_2 1_555 1_555
C12 C13 1_555 1_555
C13 H13 1_555 1_555
C13 C11_2 1_555 1_555
S1_2 C2_2 1_555 1_555
S1_2 C11_2 1_555 1_555
C1_2 C2_2 1_555 1_555
C1_2 C10_2 1_555 1_555
C1_2 H1_2 1_555 1_555
C2_2 C3_2 1_555 1_555
C3_2 C4_2 1_555 1_555
C3_2 C12_2 1_555 1_555
C4_2 C5_2 1_555 1_555
C4_2 H4_2 1_555 1_555
C5_2 C6_2 1_555 1_555
C5_2 C10_2 1_555 1_555
C6_2 C7_2 1_555 1_555
C6_2 H6_2 1_555 1_555
C7_2 C8_2 1_555 1_555
C7_2 H7_2 1_555 1_555
C8_2 C9_2 1_555 1_555
C8_2 H8_2 1_555 1_555
C9_2 C10_2 1_555 1_555
C9_2 H9_2 1_555 1_555
C11_2 C12_2 1_555 1_555
C12_2 C13_2 1_555 1_555
C13_2 H13_2 1_555 1_555
S1_3 C2_3 1_555 1_555
S1_3 C11_3 1_555 1_555
C1_3 C2_3 1_555 1_555
C1_3 C10_3 1_555 1_555
C1_3 H1_3 1_555 1_555
C2_3 C3_3 1_555 1_555
C3_3 C4_3 1_555 1_555
C3_3 C12_3 1_555 1_555
C4_3 C5_3 1_555 1_555
C4_3 H4_3 1_555 1_555
C5_3 C6_3 1_555 1_555
C5_3 C10_3 1_555 1_555
C6_3 C7_3 1_555 1_555
C6_3 H6_3 1_555 1_555
C7_3 C8_3 1_555 1_555
C7_3 H7_3 1_555 1_555
C8_3 C9_3 1_555 1_555
C8_3 H8_3 1_555 1_555
C9_3 C10_3 1_555 1_555
C9_3 H9_3 1_555 1_555
C11_3 C12_3 1_555 1_555
C11_3 C13_4 1_555 1_555
C12_3 C13_3 1_555 1_555
C13_3 H13_3 1_555 1_555
C13_3 C11_4 1_555 1_555
S1_4 C2_4 1_555 1_555
S1_4 C11_4 1_555 1_555
C1_4 C2_4 1_555 1_555
C1_4 C10_4 1_555 1_555
C1_4 H1_4 1_555 1_555
C2_4 C3_4 1_555 1_555
C3_4 C4_4 1_555 1_555
C3_4 C12_4 1_555 1_555
C4_4 C5_4 1_555 1_555
C4_4 H4_4 1_555 1_555
C5_4 C6_4 1_555 1_555
C5_4 C10_4 1_555 1_555
C6_4 C7_4 1_555 1_555
C6_4 H6_4 1_555 1_555
C7_4 C8_4 1_555 1_555
C7_4 H7_4 1_555 1_555
C8_4 C9_4 1_555 1_555
C8_4 H8_4 1_555 1_555
C9_4 C10_4 1_555 1_555
C9_4 H9_4 1_555 1_555
C11_4 C12_4 1_555 1_555
C12_4 C13_4 1_555 1_555
C13_4 H13_4 1_555 1_555
S1_5 C2_5 1_555 1_555
S1_5 C11_5 1_555 1_555
C1_5 C2_5 1_555 1_555
C1_5 C10_5 1_555 1_555
C1_5 H1_5 1_555 1_555
C2_5 C3_5 1_555 1_555
C3_5 C4_5 1_555 1_555
C3_5 C12_5 1_555 1_555
C4_5 C5_5 1_555 1_555
C4_5 H4_5 1_555 1_555
C5_5 C6_5 1_555 1_555
C5_5 C10_5 1_555 1_555
C6_5 C7_5 1_555 1_555
C6_5 H6_5 1_555 1_555
C7_5 C8_5 1_555 1_555
C7_5 H7_5 1_555 1_555
C8_5 C9_5 1_555 1_555
C8_5 H8_5 1_555 1_555
C9_5 C10_5 1_555 1_555
C9_5 H9_5 1_555 1_555
C11_5 C12_5 1_555 1_555
C11_5 C13_6 1_555 1_555
C12_5 C13_5 1_555 1_555
C13_5 H13_5 1_555 1_555
C13_5 C11_6 1_555 1_555
S1_6 C2_6 1_555 1_555
S1_6 C11_6 1_555 1_555
C1_6 C2_6 1_555 1_555
C1_6 C10_6 1_555 1_555
C1_6 H1_6 1_555 1_555
C2_6 C3_6 1_555 1_555
C3_6 C4_6 1_555 1_555
C3_6 C12_6 1_555 1_555
C4_6 C5_6 1_555 1_555
C4_6 H4_6 1_555 1_555
C5_6 C6_6 1_555 1_555
C5_6 C10_6 1_555 1_555
C6_6 C7_6 1_555 1_555
C6_6 H6_6 1_555 1_555
C7_6 C8_6 1_555 1_555
C7_6 H7_6 1_555 1_555
C8_6 C9_6 1_555 1_555
C8_6 H8_6 1_555 1_555
C9_6 C10_6 1_555 1_555
C9_6 H9_6 1_555 1_555
C11_6 C12_6 1_555 1_555
C12_6 C13_6 1_555 1_555
C13_6 H13_6 1_555 1_555
S1_7 C2_7 1_555 1_555
S1_7 C11_7 1_555 1_555
C1_7 C2_7 1_555 1_555
C1_7 C10_7 1_555 1_555
C1_7 H1_7 1_555 1_555
C2_7 C3_7 1_555 1_555
C3_7 C4_7 1_555 1_555
C3_7 C12_7 1_555 1_555
C4_7 C5_7 1_555 1_555
C4_7 H4_7 1_555 1_555
C5_7 C6_7 1_555 1_555
C5_7 C10_7 1_555 1_555
C6_7 C7_7 1_555 1_555
C6_7 H6_7 1_555 1_555
C7_7 C8_7 1_555 1_555
C7_7 H7_7 1_555 1_555
C8_7 C9_7 1_555 1_555
C8_7 H8_7 1_555 1_555
C9_7 C10_7 1_555 1_555
C9_7 H9_7 1_555 1_555
C11_7 C12_7 1_555 1_555
C11_7 C13_8 1_555 1_555
C12_7 C13_7 1_555 1_555
C13_7 H13_7 1_555 1_555
C13_7 C11_8 1_555 1_555
S1_8 C2_8 1_555 1_555
S1_8 C11_8 1_555 1_555
C1_8 C2_8 1_555 1_555
C1_8 C10_8 1_555 1_555
C1_8 H1_8 1_555 1_555
C2_8 C3_8 1_555 1_555
C3_8 C4_8 1_555 1_555
C3_8 C12_8 1_555 1_555
C4_8 C5_8 1_555 1_555
C4_8 H4_8 1_555 1_555
C5_8 C6_8 1_555 1_555
C5_8 C10_8 1_555 1_555
C6_8 C7_8 1_555 1_555
C6_8 H6_8 1_555 1_555
C7_8 C8_8 1_555 1_555
C7_8 H7_8 1_555 1_555
C8_8 C9_8 1_555 1_555
C8_8 H8_8 1_555 1_555
C9_8 C10_8 1_555 1_555
C9_8 H9_8 1_555 1_555
C11_8 C12_8 1_555 1_555
C12_8 C13_8 1_555 1_555
C13_8 H13_8 1_555 1_555
S1_9 C2_9 1_555 1_555
S1_9 C11_9 1_555 1_555
C1_9 C2_9 1_555 1_555
C1_9 C10_9 1_555 1_555
C1_9 H1_9 1_555 1_555
C2_9 C3_9 1_555 1_555
C3_9 C4_9 1_555 1_555
C3_9 C12_9 1_555 1_555
C4_9 C5_9 1_555 1_555
C4_9 H4_9 1_555 1_555
C5_9 C6_9 1_555 1_555
C5_9 C10_9 1_555 1_555
C6_9 C7_9 1_555 1_555
C6_9 H6_9 1_555 1_555
C7_9 C8_9 1_555 1_555
C7_9 H7_9 1_555 1_555
C8_9 C9_9 1_555 1_555
C8_9 H8_9 1_555 1_555
C9_9 C10_9 1_555 1_555
C9_9 H9_9 1_555 1_555
C11_9 C12_9 1_555 1_555
C11_9 C13_10 1_555 1_555
C12_9 C13_9 1_555 1_555
C13_9 H13_9 1_555 1_555
C13_9 C11_10 1_555 1_555
S1_10 C2_10 1_555 1_555
S1_10 C11_10 1_555 1_555
C1_10 C2_10 1_555 1_555
C1_10 C10_10 1_555 1_555
C1_10 H1_10 1_555 1_555
C2_10 C3_10 1_555 1_555
C3_10 C4_10 1_555 1_555
C3_10 C12_10 1_555 1_555
C4_10 C5_10 1_555 1_555
C4_10 H4_10 1_555 1_555
C5_10 C6_10 1_555 1_555
C5_10 C10_10 1_555 1_555
C6_10 C7_10 1_555 1_555
C6_10 H6_10 1_555 1_555
C7_10 C8_10 1_555 1_555
C7_10 H7_10 1_555 1_555
C8_10 C9_10 1_555 1_555
C8_10 H8_10 1_555 1_555
C9_10 C10_10 1_555 1_555
C9_10 H9_10 1_555 1_555
C11_10 C12_10 1_555 1_555
C12_10 C13_10 1_555 1_555
C13_10 H13_10 1_555 1_555
S1_11 C2_11 1_555 1_555
S1_11 C11_11 1_555 1_555
C1_11 C2_11 1_555 1_555
C1_11 C10_11 1_555 1_555
C1_11 H1_11 1_555 1_555
C2_11 C3_11 1_555 1_555
C3_11 C4_11 1_555 1_555
C3_11 C12_11 1_555 1_555
C4_11 C5_11 1_555 1_555
C4_11 H4_11 1_555 1_555
C5_11 C6_11 1_555 1_555
C5_11 C10_11 1_555 1_555
C6_11 C7_11 1_555 1_555
C6_11 H6_11 1_555 1_555
C7_11 C8_11 1_555 1_555
C7_11 H7_11 1_555 1_555
C8_11 C9_11 1_555 1_555
C8_11 H8_11 1_555 1_555
C9_11 C10_11 1_555 1_555
C9_11 H9_11 1_555 1_555
C11_11 C12_11 1_555 1_555
C11_11 C13_12 1_555 1_555
C12_11 C13_11 1_555 1_555
C13_11 H13_11 1_555 1_555
C13_11 C11_12 1_555 1_555
S1_12 C2_12 1_555 1_555
S1_12 C11_12 1_555 1_555
C1_12 C2_12 1_555 1_555
C1_12 C10_12 1_555 1_555
C1_12 H1_12 1_555 1_555
C2_12 C3_12 1_555 1_555
C3_12 C4_12 1_555 1_555
C3_12 C12_12 1_555 1_555
C4_12 C5_12 1_555 1_555
C4_12 H4_12 1_555 1_555
C5_12 C6_12 1_555 1_555
C5_12 C10_12 1_555 1_555
C6_12 C7_12 1_555 1_555
C6_12 H6_12 1_555 1_555
C7_12 C8_12 1_555 1_555
C7_12 H7_12 1_555 1_555
C8_12 C9_12 1_555 1_555
C8_12 H8_12 1_555 1_555
C9_12 C10_12 1_555 1_555
C9_12 H9_12 1_555 1_555
C11_12 C12_12 1_555 1_555
C12_12 C13_12 1_555 1_555
C13_12 H13_12 1_555 1_555
S1_13 C2_13 1_555 1_555
S1_13 C11_13 1_555 1_555
C1_13 C2_13 1_555 1_555
C1_13 C10_13 1_555 1_555
C1_13 H1_13 1_555 1_555
C2_13 C3_13 1_555 1_555
C3_13 C4_13 1_555 1_555
C3_13 C12_13 1_555 1_555
C4_13 C5_13 1_555 1_555
C4_13 H4_13 1_555 1_555
C5_13 C6_13 1_555 1_555
C5_13 C10_13 1_555 1_555
C6_13 C7_13 1_555 1_555
C6_13 H6_13 1_555 1_555
C7_13 C8_13 1_555 1_555
C7_13 H7_13 1_555 1_555
C8_13 C9_13 1_555 1_555
C8_13 H8_13 1_555 1_555
C9_13 C10_13 1_555 1_555
C9_13 H9_13 1_555 1_555
C11_13 C12_13 1_555 1_555
C11_13 C13_14 1_555 1_555
C12_13 C13_13 1_555 1_555
C13_13 H13_13 1_555 1_555
C13_13 C11_14 1_555 1_555
S1_14 C2_14 1_555 1_555
S1_14 C11_14 1_555 1_555
C1_14 C2_14 1_555 1_555
C1_14 C10_14 1_555 1_555
C1_14 H1_14 1_555 1_555
C2_14 C3_14 1_555 1_555
C3_14 C4_14 1_555 1_555
C3_14 C12_14 1_555 1_555
C4_14 C5_14 1_555 1_555
C4_14 H4_14 1_555 1_555
C5_14 C6_14 1_555 1_555
C5_14 C10_14 1_555 1_555
C6_14 C7_14 1_555 1_555
C6_14 H6_14 1_555 1_555
C7_14 C8_14 1_555 1_555
C7_14 H7_14 1_555 1_555
C8_14 C9_14 1_555 1_555
C8_14 H8_14 1_555 1_555
C9_14 C10_14 1_555 1_555
C9_14 H9_14 1_555 1_555
C11_14 C12_14 1_555 1_555
C12_14 C13_14 1_555 1_555
C13_14 H13_14 1_555 1_555
S1_15 C2_15 1_555 1_555
S1_15 C11_15 1_555 1_555
C1_15 C2_15 1_555 1_555
C1_15 C10_15 1_555 1_555
C1_15 H1_15 1_555 1_555
C2_15 C3_15 1_555 1_555
C3_15 C4_15 1_555 1_555
C3_15 C12_15 1_555 1_555
C4_15 C5_15 1_555 1_555
C4_15 H4_15 1_555 1_555
C5_15 C6_15 1_555 1_555
C5_15 C10_15 1_555 1_555
C6_15 C7_15 1_555 1_555
C6_15 H6_15 1_555 1_555
C7_15 C8_15 1_555 1_555
C7_15 H7_15 1_555 1_555
C8_15 C9_15 1_555 1_555
C8_15 H8_15 1_555 1_555
C9_15 C10_15 1_555 1_555
C9_15 H9_15 1_555 1_555
C11_15 C12_15 1_555 1_555
C11_15 C13_16 1_555 1_555
C12_15 C13_15 1_555 1_555
C13_15 H13_15 1_555 1_555
C13_15 C11_16 1_555 1_555
S1_16 C2_16 1_555 1_555
S1_16 C11_16 1_555 1_555
C1_16 C2_16 1_555 1_555
C1_16 C10_16 1_555 1_555
C1_16 H1_16 1_555 1_555
C2_16 C3_16 1_555 1_555
C3_16 C4_16 1_555 1_555
C3_16 C12_16 1_555 1_555
C4_16 C5_16 1_555 1_555
C4_16 H4_16 1_555 1_555
C5_16 C6_16 1_555 1_555
C5_16 C10_16 1_555 1_555
C6_16 C7_16 1_555 1_555
C6_16 H6_16 1_555 1_555
C7_16 C8_16 1_555 1_555
C7_16 H7_16 1_555 1_555
C8_16 C9_16 1_555 1_555
C8_16 H8_16 1_555 1_555
C9_16 C10_16 1_555 1_555
C9_16 H9_16 1_555 1_555
C11_16 C12_16 1_555 1_555
C12_16 C13_16 1_555 1_555
C13_16 H13_16 1_555 1_555
S1_17 C2_17 1_555 1_555
S1_17 C11_17 1_555 1_555
C1_17 C2_17 1_555 1_555
C1_17 C10_17 1_555 1_555
C1_17 H1_17 1_555 1_555
C2_17 C3_17 1_555 1_555
C3_17 C4_17 1_555 1_555
C3_17 C12_17 1_555 1_555
C4_17 C5_17 1_555 1_555
C4_17 H4_17 1_555 1_555
C5_17 C6_17 1_555 1_555
C5_17 C10_17 1_555 1_555
C6_17 C7_17 1_555 1_555
C6_17 H6_17 1_555 1_555
C7_17 C8_17 1_555 1_555
C7_17 H7_17 1_555 1_555
C8_17 C9_17 1_555 1_555
C8_17 H8_17 1_555 1_555
C9_17 C10_17 1_555 1_555
C9_17 H9_17 1_555 1_555
C11_17 C12_17 1_555 1_555
C11_17 C13_18 1_555 1_555
C12_17 C13_17 1_555 1_555
C13_17 H13_17 1_555 1_555
C13_17 C11_18 1_555 1_555
S1_18 C2_18 1_555 1_555
S1_18 C11_18 1_555 1_555
C1_18 C2_18 1_555 1_555
C1_18 C10_18 1_555 1_555
C1_18 H1_18 1_555 1_555
C2_18 C3_18 1_555 1_555
C3_18 C4_18 1_555 1_555
C3_18 C12_18 1_555 1_555
C4_18 C5_18 1_555 1_555
C4_18 H4_18 1_555 1_555
C5_18 C6_18 1_555 1_555
C5_18 C10_18 1_555 1_555
C6_18 C7_18 1_555 1_555
C6_18 H6_18 1_555 1_555
C7_18 C8_18 1_555 1_555
C7_18 H7_18 1_555 1_555
C8_18 C9_18 1_555 1_555
C8_18 H8_18 1_555 1_555
C9_18 C10_18 1_555 1_555
C9_18 H9_18 1_555 1_555
C11_18 C12_18 1_555 1_555
C12_18 C13_18 1_555 1_555
C13_18 H13_18 1_555 1_555
S1_19 C2_19 1_555 1_555
S1_19 C11_19 1_555 1_555
C1_19 C2_19 1_555 1_555
C1_19 C10_19 1_555 1_555
C1_19 H1_19 1_555 1_555
C2_19 C3_19 1_555 1_555
C3_19 C4_19 1_555 1_555
C3_19 C12_19 1_555 1_555
C4_19 C5_19 1_555 1_555
C4_19 H4_19 1_555 1_555
C5_19 C6_19 1_555 1_555
C5_19 C10_19 1_555 1_555
C6_19 C7_19 1_555 1_555
C6_19 H6_19 1_555 1_555
C7_19 C8_19 1_555 1_555
C7_19 H7_19 1_555 1_555
C8_19 C9_19 1_555 1_555
C8_19 H8_19 1_555 1_555
C9_19 C10_19 1_555 1_555
C9_19 H9_19 1_555 1_555
C11_19 C12_19 1_555 1_555
C11_19 C13_20 1_555 1_555
C12_19 C13_19 1_555 1_555
C13_19 H13_19 1_555 1_555
C13_19 C11_20 1_555 1_555
S1_20 C2_20 1_555 1_555
S1_20 C11_20 1_555 1_555
C1_20 C2_20 1_555 1_555
C1_20 C10_20 1_555 1_555
C1_20 H1_20 1_555 1_555
C2_20 C3_20 1_555 1_555
C3_20 C4_20 1_555 1_555
C3_20 C12_20 1_555 1_555
C4_20 C5_20 1_555 1_555
C4_20 H4_20 1_555 1_555
C5_20 C6_20 1_555 1_555
C5_20 C10_20 1_555 1_555
C6_20 C7_20 1_555 1_555
C6_20 H6_20 1_555 1_555
C7_20 C8_20 1_555 1_555
C7_20 H7_20 1_555 1_555
C8_20 C9_20 1_555 1_555
C8_20 H8_20 1_555 1_555
C9_20 C10_20 1_555 1_555
C9_20 H9_20 1_555 1_555
C11_20 C12_20 1_555 1_555
C12_20 C13_20 1_555 1_555
C13_20 H13_20 1_555 1_555
S1_21 C2_21 1_555 1_555
S1_21 C11_21 1_555 1_555
C1_21 C2_21 1_555 1_555
C1_21 C10_21 1_555 1_555
C1_21 H1_21 1_555 1_555
C2_21 C3_21 1_555 1_555
C3_21 C4_21 1_555 1_555
C3_21 C12_21 1_555 1_555
C4_21 C5_21 1_555 1_555
C4_21 H4_21 1_555 1_555
C5_21 C6_21 1_555 1_555
C5_21 C10_21 1_555 1_555
C6_21 C7_21 1_555 1_555
C6_21 H6_21 1_555 1_555
C7_21 C8_21 1_555 1_555
C7_21 H7_21 1_555 1_555
C8_21 C9_21 1_555 1_555
C8_21 H8_21 1_555 1_555
C9_21 C10_21 1_555 1_555
C9_21 H9_21 1_555 1_555
C11_21 C12_21 1_555 1_555
C11_21 C13_22 1_555 1_555
C12_21 C13_21 1_555 1_555
C13_21 H13_21 1_555 1_555
C13_21 C11_22 1_555 1_555
S1_22 C2_22 1_555 1_555
S1_22 C11_22 1_555 1_555
C1_22 C2_22 1_555 1_555
C1_22 C10_22 1_555 1_555
C1_22 H1_22 1_555 1_555
C2_22 C3_22 1_555 1_555
C3_22 C4_22 1_555 1_555
C3_22 C12_22 1_555 1_555
C4_22 C5_22 1_555 1_555
C4_22 H4_22 1_555 1_555
C5_22 C6_22 1_555 1_555
C5_22 C10_22 1_555 1_555
C6_22 C7_22 1_555 1_555
C6_22 H6_22 1_555 1_555
C7_22 C8_22 1_555 1_555
C7_22 H7_22 1_555 1_555
C8_22 C9_22 1_555 1_555
C8_22 H8_22 1_555 1_555
C9_22 C10_22 1_555 1_555
C9_22 H9_22 1_555 1_555
C11_22 C12_22 1_555 1_555
C12_22 C13_22 1_555 1_555
C13_22 H13_22 1_555 1_555
S1_23 C2_23 1_555 1_555
S1_23 C11_23 1_555 1_555
C1_23 C2_23 1_555 1_555
C1_23 C10_23 1_555 1_555
C1_23 H1_23 1_555 1_555
C2_23 C3_23 1_555 1_555
C3_23 C4_23 1_555 1_555
C3_23 C12_23 1_555 1_555
C4_23 C5_23 1_555 1_555
C4_23 H4_23 1_555 1_555
C5_23 C6_23 1_555 1_555
C5_23 C10_23 1_555 1_555
C6_23 C7_23 1_555 1_555
C6_23 H6_23 1_555 1_555
C7_23 C8_23 1_555 1_555
C7_23 H7_23 1_555 1_555
C8_23 C9_23 1_555 1_555
C8_23 H8_23 1_555 1_555
C9_23 C10_23 1_555 1_555
C9_23 H9_23 1_555 1_555
C11_23 C12_23 1_555 1_555
C11_23 C13_24 1_555 1_555
C12_23 C13_23 1_555 1_555
C13_23 H13_23 1_555 1_555
C13_23 C11_24 1_555 1_555
S1_24 C2_24 1_555 1_555
S1_24 C11_24 1_555 1_555
C1_24 C2_24 1_555 1_555
C1_24 C10_24 1_555 1_555
C1_24 H1_24 1_555 1_555
C2_24 C3_24 1_555 1_555
C3_24 C4_24 1_555 1_555
C3_24 C12_24 1_555 1_555
C4_24 C5_24 1_555 1_555
C4_24 H4_24 1_555 1_555
C5_24 C6_24 1_555 1_555
C5_24 C10_24 1_555 1_555
C6_24 C7_24 1_555 1_555
C6_24 H6_24 1_555 1_555
C7_24 C8_24 1_555 1_555
C7_24 H7_24 1_555 1_555
C8_24 C9_24 1_555 1_555
C8_24 H8_24 1_555 1_555
C9_24 C10_24 1_555 1_555
C9_24 H9_24 1_555 1_555
C11_24 C12_24 1_555 1_555
C12_24 C13_24 1_555 1_555
C13_24 H13_24 1_555 1_555
S1_25 C2_25 1_555 1_555
S1_25 C11_25 1_555 1_555
C1_25 C2_25 1_555 1_555
C1_25 C10_25 1_555 1_555
C1_25 H1_25 1_555 1_555
C2_25 C3_25 1_555 1_555
C3_25 C4_25 1_555 1_555
C3_25 C12_25 1_555 1_555
C4_25 C5_25 1_555 1_555
C4_25 H4_25 1_555 1_555
C5_25 C6_25 1_555 1_555
C5_25 C10_25 1_555 1_555
C6_25 C7_25 1_555 1_555
C6_25 H6_25 1_555 1_555
C7_25 C8_25 1_555 1_555
C7_25 H7_25 1_555 1_555
C8_25 C9_25 1_555 1_555
C8_25 H8_25 1_555 1_555
C9_25 C10_25 1_555 1_555
C9_25 H9_25 1_555 1_555
C11_25 C12_25 1_555 1_555
C11_25 C13_26 1_555 1_555
C12_25 C13_25 1_555 1_555
C13_25 H13_25 1_555 1_555
C13_25 C11_26 1_555 1_555
S1_26 C2_26 1_555 1_555
S1_26 C11_26 1_555 1_555
C1_26 C2_26 1_555 1_555
C1_26 C10_26 1_555 1_555
C1_26 H1_26 1_555 1_555
C2_26 C3_26 1_555 1_555
C3_26 C4_26 1_555 1_555
C3_26 C12_26 1_555 1_555
C4_26 C5_26 1_555 1_555
C4_26 H4_26 1_555 1_555
C5_26 C6_26 1_555 1_555
C5_26 C10_26 1_555 1_555
C6_26 C7_26 1_555 1_555
C6_26 H6_26 1_555 1_555
C7_26 C8_26 1_555 1_555
C7_26 H7_26 1_555 1_555
C8_26 C9_26 1_555 1_555
C8_26 H8_26 1_555 1_555
C9_26 C10_26 1_555 1_555
C9_26 H9_26 1_555 1_555
C11_26 C12_26 1_555 1_555
C12_26 C13_26 1_555 1_555
C13_26 H13_26 1_555 1_555
S1_27 C2_27 1_555 1_555
S1_27 C11_27 1_555 1_555
C1_27 C2_27 1_555 1_555
C1_27 C10_27 1_555 1_555
C1_27 H1_27 1_555 1_555
C2_27 C3_27 1_555 1_555
C3_27 C4_27 1_555 1_555
C3_27 C12_27 1_555 1_555
C4_27 C5_27 1_555 1_555
C4_27 H4_27 1_555 1_555
C5_27 C6_27 1_555 1_555
C5_27 C10_27 1_555 1_555
C6_27 C7_27 1_555 1_555
C6_27 H6_27 1_555 1_555
C7_27 C8_27 1_555 1_555
C7_27 H7_27 1_555 1_555
C8_27 C9_27 1_555 1_555
C8_27 H8_27 1_555 1_555
C9_27 C10_27 1_555 1_555
C9_27 H9_27 1_555 1_555
C11_27 C12_27 1_555 1_555
C11_27 C13_28 1_555 1_555
C12_27 C13_27 1_555 1_555
C13_27 H13_27 1_555 1_555
C13_27 C11_28 1_555 1_555
S1_28 C2_28 1_555 1_555
S1_28 C11_28 1_555 1_555
C1_28 C2_28 1_555 1_555
C1_28 C10_28 1_555 1_555
C1_28 H1_28 1_555 1_555
C2_28 C3_28 1_555 1_555
C3_28 C4_28 1_555 1_555
C3_28 C12_28 1_555 1_555
C4_28 C5_28 1_555 1_555
C4_28 H4_28 1_555 1_555
C5_28 C6_28 1_555 1_555
C5_28 C10_28 1_555 1_555
C6_28 C7_28 1_555 1_555
C6_28 H6_28 1_555 1_555
C7_28 C8_28 1_555 1_555
C7_28 H7_28 1_555 1_555
C8_28 C9_28 1_555 1_555
C8_28 H8_28 1_555 1_555
C9_28 C10_28 1_555 1_555
C9_28 H9_28 1_555 1_555
C11_28 C12_28 1_555 1_555
C12_28 C13_28 1_555 1_555
C13_28 H13_28 1_555 1_555
S1_29 C2_29 1_555 1_555
S1_29 C11_29 1_555 1_555
C1_29 C2_29 1_555 1_555
C1_29 C10_29 1_555 1_555
C1_29 H1_29 1_555 1_555
C2_29 C3_29 1_555 1_555
C3_29 C4_29 1_555 1_555
C3_29 C12_29 1_555 1_555
C4_29 C5_29 1_555 1_555
C4_29 H4_29 1_555 1_555
C5_29 C6_29 1_555 1_555
C5_29 C10_29 1_555 1_555
C6_29 C7_29 1_555 1_555
C6_29 H6_29 1_555 1_555
C7_29 C8_29 1_555 1_555
C7_29 H7_29 1_555 1_555
C8_29 C9_29 1_555 1_555
C8_29 H8_29 1_555 1_555
C9_29 C10_29 1_555 1_555
C9_29 H9_29 1_555 1_555
C11_29 C12_29 1_555 1_555
C11_29 C13_30 1_555 1_555
C12_29 C13_29 1_555 1_555
C13_29 H13_29 1_555 1_555
C13_29 C11_30 1_555 1_555
S1_30 C2_30 1_555 1_555
S1_30 C11_30 1_555 1_555
C1_30 C2_30 1_555 1_555
C1_30 C10_30 1_555 1_555
C1_30 H1_30 1_555 1_555
C2_30 C3_30 1_555 1_555
C3_30 C4_30 1_555 1_555
C3_30 C12_30 1_555 1_555
C4_30 C5_30 1_555 1_555
C4_30 H4_30 1_555 1_555
C5_30 C6_30 1_555 1_555
C5_30 C10_30 1_555 1_555
C6_30 C7_30 1_555 1_555
C6_30 H6_30 1_555 1_555
C7_30 C8_30 1_555 1_555
C7_30 H7_30 1_555 1_555
C8_30 C9_30 1_555 1_555
C8_30 H8_30 1_555 1_555
C9_30 C10_30 1_555 1_555
C9_30 H9_30 1_555 1_555
C11_30 C12_30 1_555 1_555
C12_30 C13_30 1_555 1_555
C13_30 H13_30 1_555 1_555
S1_31 C2_31 1_555 1_555
S1_31 C11_31 1_555 1_555
C1_31 C2_31 1_555 1_555
C1_31 C10_31 1_555 1_555
C1_31 H1_31 1_555 1_555
C2_31 C3_31 1_555 1_555
C3_31 C4_31 1_555 1_555
C3_31 C12_31 1_555 1_555
C4_31 C5_31 1_555 1_555
C4_31 H4_31 1_555 1_555
C5_31 C6_31 1_555 1_555
C5_31 C10_31 1_555 1_555
C6_31 C7_31 1_555 1_555
C6_31 H6_31 1_555 1_555
C7_31 C8_31 1_555 1_555
C7_31 H7_31 1_555 1_555
C8_31 C9_31 1_555 1_555
C8_31 H8_31 1_555 1_555
C9_31 C10_31 1_555 1_555
C9_31 H9_31 1_555 1_555
C11_31 C12_31 1_555 1_555
C11_31 C13_32 1_555 1_555
C12_31 C13_31 1_555 1_555
C13_31 H13_31 1_555 1_555
C13_31 C11_32 1_555 1_555
S1_32 C2_32 1_555 1_555
S1_32 C11_32 1_555 1_555
C1_32 C2_32 1_555 1_555
C1_32 C10_32 1_555 1_555
C1_32 H1_32 1_555 1_555
C2_32 C3_32 1_555 1_555
C3_32 C4_32 1_555 1_555
C3_32 C12_32 1_555 1_555
C4_32 C5_32 1_555 1_555
C4_32 H4_32 1_555 1_555
C5_32 C6_32 1_555 1_555
C5_32 C10_32 1_555 1_555
C6_32 C7_32 1_555 1_555
C6_32 H6_32 1_555 1_555
C7_32 C8_32 1_555 1_555
C7_32 H7_32 1_555 1_555
C8_32 C9_32 1_555 1_555
C8_32 H8_32 1_555 1_555
C9_32 C10_32 1_555 1_555
C9_32 H9_32 1_555 1_555
C11_32 C12_32 1_555 1_555
C12_32 C13_32 1_555 1_555
C13_32 H13_32 1_555 1_555
S1_33 C2_33 1_555 1_555
S1_33 C11_33 1_555 1_555
C1_33 C2_33 1_555 1_555
C1_33 C10_33 1_555 1_555
C1_33 H1_33 1_555 1_555
C2_33 C3_33 1_555 1_555
C3_33 C4_33 1_555 1_555
C3_33 C12_33 1_555 1_555
C4_33 C5_33 1_555 1_555
C4_33 H4_33 1_555 1_555
C5_33 C6_33 1_555 1_555
C5_33 C10_33 1_555 1_555
C6_33 C7_33 1_555 1_555
C6_33 H6_33 1_555 1_555
C7_33 C8_33 1_555 1_555
C7_33 H7_33 1_555 1_555
C8_33 C9_33 1_555 1_555
C8_33 H8_33 1_555 1_555
C9_33 C10_33 1_555 1_555
C9_33 H9_33 1_555 1_555
C11_33 C12_33 1_555 1_555
C11_33 C13_34 1_555 1_555
C12_33 C13_33 1_555 1_555
C13_33 H13_33 1_555 1_555
C13_33 C11_34 1_555 1_555
S1_34 C2_34 1_555 1_555
S1_34 C11_34 1_555 1_555
C1_34 C2_34 1_555 1_555
C1_34 C10_34 1_555 1_555
C1_34 H1_34 1_555 1_555
C2_34 C3_34 1_555 1_555
C3_34 C4_34 1_555 1_555
C3_34 C12_34 1_555 1_555
C4_34 C5_34 1_555 1_555
C4_34 H4_34 1_555 1_555
C5_34 C6_34 1_555 1_555
C5_34 C10_34 1_555 1_555
C6_34 C7_34 1_555 1_555
C6_34 H6_34 1_555 1_555
C7_34 C8_34 1_555 1_555
C7_34 H7_34 1_555 1_555
C8_34 C9_34 1_555 1_555
C8_34 H8_34 1_555 1_555
C9_34 C10_34 1_555 1_555
C9_34 H9_34 1_555 1_555
C11_34 C12_34 1_555 1_555
C12_34 C13_34 1_555 1_555
C13_34 H13_34 1_555 1_555
S1_35 C2_35 1_555 1_555
S1_35 C11_35 1_555 1_555
C1_35 C2_35 1_555 1_555
C1_35 C10_35 1_555 1_555
C1_35 H1_35 1_555 1_555
C2_35 C3_35 1_555 1_555
C3_35 C4_35 1_555 1_555
C3_35 C12_35 1_555 1_555
C4_35 C5_35 1_555 1_555
C4_35 H4_35 1_555 1_555
C5_35 C6_35 1_555 1_555
C5_35 C10_35 1_555 1_555
C6_35 C7_35 1_555 1_555
C6_35 H6_35 1_555 1_555
C7_35 C8_35 1_555 1_555
C7_35 H7_35 1_555 1_555
C8_35 C9_35 1_555 1_555
C8_35 H8_35 1_555 1_555
C9_35 C10_35 1_555 1_555
C9_35 H9_35 1_555 1_555
C11_35 C12_35 1_555 1_555
C11_35 C13_36 1_555 1_555
C12_35 C13_35 1_555 1_555
C13_35 H13_35 1_555 1_555
C13_35 C11_36 1_555 1_555
S1_36 C2_36 1_555 1_555
S1_36 C11_36 1_555 1_555
C1_36 C2_36 1_555 1_555
C1_36 C10_36 1_555 1_555
C1_36 H1_36 1_555 1_555
C2_36 C3_36 1_555 1_555
C3_36 C4_36 1_555 1_555
C3_36 C12_36 1_555 1_555
C4_36 C5_36 1_555 1_555
C4_36 H4_36 1_555 1_555
C5_36 C6_36 1_555 1_555
C5_36 C10_36 1_555 1_555
C6_36 C7_36 1_555 1_555
C6_36 H6_36 1_555 1_555
C7_36 C8_36 1_555 1_555
C7_36 H7_36 1_555 1_555
C8_36 C9_36 1_555 1_555
C8_36 H8_36 1_555 1_555
C9_36 C10_36 1_555 1_555
C9_36 H9_36 1_555 1_555
C11_36 C12_36 1_555 1_555
C12_36 C13_36 1_555 1_555
C13_36 H13_36 1_555 1_555
S1_37 C2_37 1_555 1_555
S1_37 C11_37 1_555 1_555
C1_37 C2_37 1_555 1_555
C1_37 C10_37 1_555 1_555
C1_37 H1_37 1_555 1_555
C2_37 C3_37 1_555 1_555
C3_37 C4_37 1_555 1_555
C3_37 C12_37 1_555 1_555
C4_37 C5_37 1_555 1_555
C4_37 H4_37 1_555 1_555
C5_37 C6_37 1_555 1_555
C5_37 C10_37 1_555 1_555
C6_37 C7_37 1_555 1_555
C6_37 H6_37 1_555 1_555
C7_37 C8_37 1_555 1_555
C7_37 H7_37 1_555 1_555
C8_37 C9_37 1_555 1_555
C8_37 H8_37 1_555 1_555
C9_37 C10_37 1_555 1_555
C9_37 H9_37 1_555 1_555
C11_37 C12_37 1_555 1_555
C11_37 C13_38 1_555 1_555
C12_37 C13_37 1_555 1_555
C13_37 H13_37 1_555 1_555
C13_37 C11_38 1_555 1_555
S1_38 C2_38 1_555 1_555
S1_38 C11_38 1_555 1_555
C1_38 C2_38 1_555 1_555
C1_38 C10_38 1_555 1_555
C1_38 H1_38 1_555 1_555
C2_38 C3_38 1_555 1_555
C3_38 C4_38 1_555 1_555
C3_38 C12_38 1_555 1_555
C4_38 C5_38 1_555 1_555
C4_38 H4_38 1_555 1_555
C5_38 C6_38 1_555 1_555
C5_38 C10_38 1_555 1_555
C6_38 C7_38 1_555 1_555
C6_38 H6_38 1_555 1_555
C7_38 C8_38 1_555 1_555
C7_38 H7_38 1_555 1_555
C8_38 C9_38 1_555 1_555
C8_38 H8_38 1_555 1_555
C9_38 C10_38 1_555 1_555
C9_38 H9_38 1_555 1_555
C11_38 C12_38 1_555 1_555
C12_38 C13_38 1_555 1_555
C13_38 H13_38 1_555 1_555
S1_39 C2_39 1_555 1_555
S1_39 C11_39 1_555 1_555
C1_39 C2_39 1_555 1_555
C1_39 C10_39 1_555 1_555
C1_39 H1_39 1_555 1_555
C2_39 C3_39 1_555 1_555
C3_39 C4_39 1_555 1_555
C3_39 C12_39 1_555 1_555
C4_39 C5_39 1_555 1_555
C4_39 H4_39 1_555 1_555
C5_39 C6_39 1_555 1_555
C5_39 C10_39 1_555 1_555
C6_39 C7_39 1_555 1_555
C6_39 H6_39 1_555 1_555
C7_39 C8_39 1_555 1_555
C7_39 H7_39 1_555 1_555
C8_39 C9_39 1_555 1_555
C8_39 H8_39 1_555 1_555
C9_39 C10_39 1_555 1_555
C9_39 H9_39 1_555 1_555
C11_39 C12_39 1_555 1_555
C11_39 C13_40 1_555 1_555
C12_39 C13_39 1_555 1_555
C13_39 H13_39 1_555 1_555
C13_39 C11_40 1_555 1_555
S1_40 C2_40 1_555 1_555
S1_40 C11_40 1_555 1_555
C1_40 C2_40 1_555 1_555
C1_40 C10_40 1_555 1_555
C1_40 H1_40 1_555 1_555
C2_40 C3_40 1_555 1_555
C3_40 C4_40 1_555 1_555
C3_40 C12_40 1_555 1_555
C4_40 C5_40 1_555 1_555
C4_40 H4_40 1_555 1_555
C5_40 C6_40 1_555 1_555
C5_40 C10_40 1_555 1_555
C6_40 C7_40 1_555 1_555
C6_40 H6_40 1_555 1_555
C7_40 C8_40 1_555 1_555
C7_40 H7_40 1_555 1_555
C8_40 C9_40 1_555 1_555
C8_40 H8_40 1_555 1_555
C9_40 C10_40 1_555 1_555
C9_40 H9_40 1_555 1_555
C11_40 C12_40 1_555 1_555
C12_40 C13_40 1_555 1_555
C13_40 H13_40 1_555 1_555
S1_41 C2_41 1_555 1_555
S1_41 C11_41 1_555 1_555
C1_41 C2_41 1_555 1_555
C1_41 C10_41 1_555 1_555
C1_41 H1_41 1_555 1_555
C2_41 C3_41 1_555 1_555
C3_41 C4_41 1_555 1_555
C3_41 C12_41 1_555 1_555
C4_41 C5_41 1_555 1_555
C4_41 H4_41 1_555 1_555
C5_41 C6_41 1_555 1_555
C5_41 C10_41 1_555 1_555
C6_41 C7_41 1_555 1_555
C6_41 H6_41 1_555 1_555
C7_41 C8_41 1_555 1_555
C7_41 H7_41 1_555 1_555
C8_41 C9_41 1_555 1_555
C8_41 H8_41 1_555 1_555
C9_41 C10_41 1_555 1_555
C9_41 H9_41 1_555 1_555
C11_41 C12_41 1_555 1_555
C11_41 C13_42 1_555 1_555
C12_41 C13_41 1_555 1_555
C13_41 H13_41 1_555 1_555
C13_41 C11_42 1_555 1_555
S1_42 C2_42 1_555 1_555
S1_42 C11_42 1_555 1_555
C1_42 C2_42 1_555 1_555
C1_42 C10_42 1_555 1_555
C1_42 H1_42 1_555 1_555
C2_42 C3_42 1_555 1_555
C3_42 C4_42 1_555 1_555
C3_42 C12_42 1_555 1_555
C4_42 C5_42 1_555 1_555
C4_42 H4_42 1_555 1_555
C5_42 C6_42 1_555 1_555
C5_42 C10_42 1_555 1_555
C6_42 C7_42 1_555 1_555
C6_42 H6_42 1_555 1_555
C7_42 C8_42 1_555 1_555
C7_42 H7_42 1_555 1_555
C8_42 C9_42 1_555 1_555
C8_42 H8_42 1_555 1_555
C9_42 C10_42 1_555 1_555
C9_42 H9_42 1_555 1_555
C11_42 C12_42 1_555 1_555
C12_42 C13_42 1_555 1_555
C13_42 H13_42 1_555 1_555
S1_43 C2_43 1_555 1_555
S1_43 C11_43 1_555 1_555
C1_43 C2_43 1_555 1_555
C1_43 C10_43 1_555 1_555
C1_43 H1_43 1_555 1_555
C2_43 C3_43 1_555 1_555
C3_43 C4_43 1_555 1_555
C3_43 C12_43 1_555 1_555
C4_43 C5_43 1_555 1_555
C4_43 H4_43 1_555 1_555
C5_43 C6_43 1_555 1_555
C5_43 C10_43 1_555 1_555
C6_43 C7_43 1_555 1_555
C6_43 H6_43 1_555 1_555
C7_43 C8_43 1_555 1_555
C7_43 H7_43 1_555 1_555
C8_43 C9_43 1_555 1_555
C8_43 H8_43 1_555 1_555
C9_43 C10_43 1_555 1_555
C9_43 H9_43 1_555 1_555
C11_43 C12_43 1_555 1_555
C11_43 C13_44 1_555 1_555
C12_43 C13_43 1_555 1_555
C13_43 H13_43 1_555 1_555
C13_43 C11_44 1_555 1_555
S1_44 C2_44 1_555 1_555
S1_44 C11_44 1_555 1_555
C1_44 C2_44 1_555 1_555
C1_44 C10_44 1_555 1_555
C1_44 H1_44 1_555 1_555
C2_44 C3_44 1_555 1_555
C3_44 C4_44 1_555 1_555
C3_44 C12_44 1_555 1_555
C4_44 C5_44 1_555 1_555
C4_44 H4_44 1_555 1_555
C5_44 C6_44 1_555 1_555
C5_44 C10_44 1_555 1_555
C6_44 C7_44 1_555 1_555
C6_44 H6_44 1_555 1_555
C7_44 C8_44 1_555 1_555
C7_44 H7_44 1_555 1_555
C8_44 C9_44 1_555 1_555
C8_44 H8_44 1_555 1_555
C9_44 C10_44 1_555 1_555
C9_44 H9_44 1_555 1_555
C11_44 C12_44 1_555 1_555
C12_44 C13_44 1_555 1_555
C13_44 H13_44 1_555 1_555
S1_45 C2_45 1_555 1_555
S1_45 C11_45 1_555 1_555
C1_45 C2_45 1_555 1_555
C1_45 C10_45 1_555 1_555
C1_45 H1_45 1_555 1_555
C2_45 C3_45 1_555 1_555
C3_45 C4_45 1_555 1_555
C3_45 C12_45 1_555 1_555
C4_45 C5_45 1_555 1_555
C4_45 H4_45 1_555 1_555
C5_45 C6_45 1_555 1_555
C5_45 C10_45 1_555 1_555
C6_45 C7_45 1_555 1_555
C6_45 H6_45 1_555 1_555
C7_45 C8_45 1_555 1_555
C7_45 H7_45 1_555 1_555
C8_45 C9_45 1_555 1_555
C8_45 H8_45 1_555 1_555
C9_45 C10_45 1_555 1_555
C9_45 H9_45 1_555 1_555
C11_45 C12_45 1_555 1_555
C11_45 C13_46 1_555 1_555
C12_45 C13_45 1_555 1_555
C13_45 H13_45 1_555 1_555
C13_45 C11_46 1_555 1_555
S1_46 C2_46 1_555 1_555
S1_46 C11_46 1_555 1_555
C1_46 C2_46 1_555 1_555
C1_46 C10_46 1_555 1_555
C1_46 H1_46 1_555 1_555
C2_46 C3_46 1_555 1_555
C3_46 C4_46 1_555 1_555
C3_46 C12_46 1_555 1_555
C4_46 C5_46 1_555 1_555
C4_46 H4_46 1_555 1_555
C5_46 C6_46 1_555 1_555
C5_46 C10_46 1_555 1_555
C6_46 C7_46 1_555 1_555
C6_46 H6_46 1_555 1_555
C7_46 C8_46 1_555 1_555
C7_46 H7_46 1_555 1_555
C8_46 C9_46 1_555 1_555
C8_46 H8_46 1_555 1_555
C9_46 C10_46 1_555 1_555
C9_46 H9_46 1_555 1_555
C11_46 C12_46 1_555 1_555
C12_46 C13_46 1_555 1_555
C13_46 H13_46 1_555 1_555
S1_47 C2_47 1_555 1_555
S1_47 C11_47 1_555 1_555
C1_47 C2_47 1_555 1_555
C1_47 C10_47 1_555 1_555
C1_47 H1_47 1_555 1_555
C2_47 C3_47 1_555 1_555
C3_47 C4_47 1_555 1_555
C3_47 C12_47 1_555 1_555
C4_47 C5_47 1_555 1_555
C4_47 H4_47 1_555 1_555
C5_47 C6_47 1_555 1_555
C5_47 C10_47 1_555 1_555
C6_47 C7_47 1_555 1_555
C6_47 H6_47 1_555 1_555
C7_47 C8_47 1_555 1_555
C7_47 H7_47 1_555 1_555
C8_47 C9_47 1_555 1_555
C8_47 H8_47 1_555 1_555
C9_47 C10_47 1_555 1_555
C9_47 H9_47 1_555 1_555
C11_47 C12_47 1_555 1_555
C11_47 C13_48 1_555 1_555
C12_47 C13_47 1_555 1_555
C13_47 H13_47 1_555 1_555
C13_47 C11_48 1_555 1_555
S1_48 C2_48 1_555 1_555
S1_48 C11_48 1_555 1_555
C1_48 C2_48 1_555 1_555
C1_48 C10_48 1_555 1_555
C1_48 H1_48 1_555 1_555
C2_48 C3_48 1_555 1_555
C3_48 C4_48 1_555 1_555
C3_48 C12_48 1_555 1_555
C4_48 C5_48 1_555 1_555
C4_48 H4_48 1_555 1_555
C5_48 C6_48 1_555 1_555
C5_48 C10_48 1_555 1_555
C6_48 C7_48 1_555 1_555
C6_48 H6_48 1_555 1_555
C7_48 C8_48 1_555 1_555
C7_48 H7_48 1_555 1_555
C8_48 C9_48 1_555 1_555
C8_48 H8_48 1_555 1_555
C9_48 C10_48 1_555 1_555
C9_48 H9_48 1_555 1_555
C11_48 C12_48 1_555 1_555
C12_48 C13_48 1_555 1_555
C13_48 H13_48 1_555 1_555
S1_49 C2_49 1_555 1_555
S1_49 C11_49 1_555 1_555
C1_49 C2_49 1_555 1_555
C1_49 C10_49 1_555 1_555
C1_49 H1_49 1_555 1_555
C2_49 C3_49 1_555 1_555
C3_49 C4_49 1_555 1_555
C3_49 C12_49 1_555 1_555
C4_49 C5_49 1_555 1_555
C4_49 H4_49 1_555 1_555
C5_49 C6_49 1_555 1_555
C5_49 C10_49 1_555 1_555
C6_49 C7_49 1_555 1_555
C6_49 H6_49 1_555 1_555
C7_49 C8_49 1_555 1_555
C7_49 H7_49 1_555 1_555
C8_49 C9_49 1_555 1_555
C8_49 H8_49 1_555 1_555
C9_49 C10_49 1_555 1_555
C9_49 H9_49 1_555 1_555
C11_49 C12_49 1_555 1_555
C11_49 C13_50 1_555 1_555
C12_49 C13_49 1_555 1_555
C13_49 H13_49 1_555 1_555
C13_49 C11_50 1_555 1_555
S1_50 C2_50 1_555 1_555
S1_50 C11_50 1_555 1_555
C1_50 C2_50 1_555 1_555
C1_50 C10_50 1_555 1_555
C1_50 H1_50 1_555 1_555
C2_50 C3_50 1_555 1_555
C3_50 C4_50 1_555 1_555
C3_50 C12_50 1_555 1_555
C4_50 C5_50 1_555 1_555
C4_50 H4_50 1_555 1_555
C5_50 C6_50 1_555 1_555
C5_50 C10_50 1_555 1_555
C6_50 C7_50 1_555 1_555
C6_50 H6_50 1_555 1_555
C7_50 C8_50 1_555 1_555
C7_50 H7_50 1_555 1_555
C8_50 C9_50 1_555 1_555
C8_50 H8_50 1_555 1_555
C9_50 C10_50 1_555 1_555
C9_50 H9_50 1_555 1_555
C11_50 C12_50 1_555 1_555
C12_50 C13_50 1_555 1_555
C13_50 H13_50 1_555 1_555
S1_51 C2_51 1_555 1_555
S1_51 C11_51 1_555 1_555
C1_51 C2_51 1_555 1_555
C1_51 C10_51 1_555 1_555
C1_51 H1_51 1_555 1_555
C2_51 C3_51 1_555 1_555
C3_51 C4_51 1_555 1_555
C3_51 C12_51 1_555 1_555
C4_51 C5_51 1_555 1_555
C4_51 H4_51 1_555 1_555
C5_51 C6_51 1_555 1_555
C5_51 C10_51 1_555 1_555
C6_51 C7_51 1_555 1_555
C6_51 H6_51 1_555 1_555
C7_51 C8_51 1_555 1_555
C7_51 H7_51 1_555 1_555
C8_51 C9_51 1_555 1_555
C8_51 H8_51 1_555 1_555
C9_51 C10_51 1_555 1_555
C9_51 H9_51 1_555 1_555
C11_51 C12_51 1_555 1_555
C11_51 C13_52 1_555 1_555
C12_51 C13_51 1_555 1_555
C13_51 H13_51 1_555 1_555
C13_51 C11_52 1_555 1_555
S1_52 C2_52 1_555 1_555
S1_52 C11_52 1_555 1_555
C1_52 C2_52 1_555 1_555
C1_52 C10_52 1_555 1_555
C1_52 H1_52 1_555 1_555
C2_52 C3_52 1_555 1_555
C3_52 C4_52 1_555 1_555
C3_52 C12_52 1_555 1_555
C4_52 C5_52 1_555 1_555
C4_52 H4_52 1_555 1_555
C5_52 C6_52 1_555 1_555
C5_52 C10_52 1_555 1_555
C6_52 C7_52 1_555 1_555
C6_52 H6_52 1_555 1_555
C7_52 C8_52 1_555 1_555
C7_52 H7_52 1_555 1_555
C8_52 C9_52 1_555 1_555
C8_52 H8_52 1_555 1_555
C9_52 C10_52 1_555 1_555
C9_52 H9_52 1_555 1_555
C11_52 C12_52 1_555 1_555
C12_52 C13_52 1_555 1_555
C13_52 H13_52 1_555 1_555
S1_53 C2_53 1_555 1_555
S1_53 C11_53 1_555 1_555
C1_53 C2_53 1_555 1_555
C1_53 C10_53 1_555 1_555
C1_53 H1_53 1_555 1_555
C2_53 C3_53 1_555 1_555
C3_53 C4_53 1_555 1_555
C3_53 C12_53 1_555 1_555
C4_53 C5_53 1_555 1_555
C4_53 H4_53 1_555 1_555
C5_53 C6_53 1_555 1_555
C5_53 C10_53 1_555 1_555
C6_53 C7_53 1_555 1_555
C6_53 H6_53 1_555 1_555
C7_53 C8_53 1_555 1_555
C7_53 H7_53 1_555 1_555
C8_53 C9_53 1_555 1_555
C8_53 H8_53 1_555 1_555
C9_53 C10_53 1_555 1_555
C9_53 H9_53 1_555 1_555
C11_53 C12_53 1_555 1_555
C11_53 C13_54 1_555 1_555
C12_53 C13_53 1_555 1_555
C13_53 H13_53 1_555 1_555
C13_53 C11_54 1_555 1_555
S1_54 C2_54 1_555 1_555
S1_54 C11_54 1_555 1_555
C1_54 C2_54 1_555 1_555
C1_54 C10_54 1_555 1_555
C1_54 H1_54 1_555 1_555
C2_54 C3_54 1_555 1_555
C3_54 C4_54 1_555 1_555
C3_54 C12_54 1_555 1_555
C4_54 C5_54 1_555 1_555
C4_54 H4_54 1_555 1_555
C5_54 C6_54 1_555 1_555
C5_54 C10_54 1_555 1_555
C6_54 C7_54 1_555 1_555
C6_54 H6_54 1_555 1_555
C7_54 C8_54 1_555 1_555
C7_54 H7_54 1_555 1_555
C8_54 C9_54 1_555 1_555
C8_54 H8_54 1_555 1_555
C9_54 C10_54 1_555 1_555
C9_54 H9_54 1_555 1_555
C11_54 C12_54 1_555 1_555
C12_54 C13_54 1_555 1_555
C13_54 H13_54 1_555 1_555
S1_55 C2_55 1_555 1_555
S1_55 C11_55 1_555 1_555
C1_55 C2_55 1_555 1_555
C1_55 C10_55 1_555 1_555
C1_55 H1_55 1_555 1_555
C2_55 C3_55 1_555 1_555
C3_55 C4_55 1_555 1_555
C3_55 C12_55 1_555 1_555
C4_55 C5_55 1_555 1_555
C4_55 H4_55 1_555 1_555
C5_55 C6_55 1_555 1_555
C5_55 C10_55 1_555 1_555
C6_55 C7_55 1_555 1_555
C6_55 H6_55 1_555 1_555
C7_55 C8_55 1_555 1_555
C7_55 H7_55 1_555 1_555
C8_55 C9_55 1_555 1_555
C8_55 H8_55 1_555 1_555
C9_55 C10_55 1_555 1_555
C9_55 H9_55 1_555 1_555
C11_55 C12_55 1_555 1_555
C11_55 C13_56 1_555 1_555
C12_55 C13_55 1_555 1_555
C13_55 H13_55 1_555 1_555
C13_55 C11_56 1_555 1_555
S1_56 C2_56 1_555 1_555
S1_56 C11_56 1_555 1_555
C1_56 C2_56 1_555 1_555
C1_56 C10_56 1_555 1_555
C1_56 H1_56 1_555 1_555
C2_56 C3_56 1_555 1_555
C3_56 C4_56 1_555 1_555
C3_56 C12_56 1_555 1_555
C4_56 C5_56 1_555 1_555
C4_56 H4_56 1_555 1_555
C5_56 C6_56 1_555 1_555
C5_56 C10_56 1_555 1_555
C6_56 C7_56 1_555 1_555
C6_56 H6_56 1_555 1_555
C7_56 C8_56 1_555 1_555
C7_56 H7_56 1_555 1_555
C8_56 C9_56 1_555 1_555
C8_56 H8_56 1_555 1_555
C9_56 C10_56 1_555 1_555
C9_56 H9_56 1_555 1_555
C11_56 C12_56 1_555 1_555
C12_56 C13_56 1_555 1_555
C13_56 H13_56 1_555 1_555
S1_57 C2_57 1_555 1_555
S1_57 C11_57 1_555 1_555
C1_57 C2_57 1_555 1_555
C1_57 C10_57 1_555 1_555
C1_57 H1_57 1_555 1_555
C2_57 C3_57 1_555 1_555
C3_57 C4_57 1_555 1_555
C3_57 C12_57 1_555 1_555
C4_57 C5_57 1_555 1_555
C4_57 H4_57 1_555 1_555
C5_57 C6_57 1_555 1_555
C5_57 C10_57 1_555 1_555
C6_57 C7_57 1_555 1_555
C6_57 H6_57 1_555 1_555
C7_57 C8_57 1_555 1_555
C7_57 H7_57 1_555 1_555
C8_57 C9_57 1_555 1_555
C8_57 H8_57 1_555 1_555
C9_57 C10_57 1_555 1_555
C9_57 H9_57 1_555 1_555
C11_57 C12_57 1_555 1_555
C11_57 C13_58 1_555 1_555
C12_57 C13_57 1_555 1_555
C13_57 H13_57 1_555 1_555
C13_57 C11_58 1_555 1_555
S1_58 C2_58 1_555 1_555
S1_58 C11_58 1_555 1_555
C1_58 C2_58 1_555 1_555
C1_58 C10_58 1_555 1_555
C1_58 H1_58 1_555 1_555
C2_58 C3_58 1_555 1_555
C3_58 C4_58 1_555 1_555
C3_58 C12_58 1_555 1_555
C4_58 C5_58 1_555 1_555
C4_58 H4_58 1_555 1_555
C5_58 C6_58 1_555 1_555
C5_58 C10_58 1_555 1_555
C6_58 C7_58 1_555 1_555
C6_58 H6_58 1_555 1_555
C7_58 C8_58 1_555 1_555
C7_58 H7_58 1_555 1_555
C8_58 C9_58 1_555 1_555
C8_58 H8_58 1_555 1_555
C9_58 C10_58 1_555 1_555
C9_58 H9_58 1_555 1_555
C11_58 C12_58 1_555 1_555
C12_58 C13_58 1_555 1_555
C13_58 H13_58 1_555 1_555
S1_59 C2_59 1_555 1_555
S1_59 C11_59 1_555 1_555
C1_59 C2_59 1_555 1_555
C1_59 C10_59 1_555 1_555
C1_59 H1_59 1_555 1_555
C2_59 C3_59 1_555 1_555
C3_59 C4_59 1_555 1_555
C3_59 C12_59 1_555 1_555
C4_59 C5_59 1_555 1_555
C4_59 H4_59 1_555 1_555
C5_59 C6_59 1_555 1_555
C5_59 C10_59 1_555 1_555
C6_59 C7_59 1_555 1_555
C6_59 H6_59 1_555 1_555
C7_59 C8_59 1_555 1_555
C7_59 H7_59 1_555 1_555
C8_59 C9_59 1_555 1_555
C8_59 H8_59 1_555 1_555
C9_59 C10_59 1_555 1_555
C9_59 H9_59 1_555 1_555
C11_59 C12_59 1_555 1_555
C11_59 C13_60 1_555 1_555
C12_59 C13_59 1_555 1_555
C13_59 H13_59 1_555 1_555
C13_59 C11_60 1_555 1_555
S1_60 C2_60 1_555 1_555
S1_60 C11_60 1_555 1_555
C1_60 C2_60 1_555 1_555
C1_60 C10_60 1_555 1_555
C1_60 H1_60 1_555 1_555
C2_60 C3_60 1_555 1_555
C3_60 C4_60 1_555 1_555
C3_60 C12_60 1_555 1_555
C4_60 C5_60 1_555 1_555
C4_60 H4_60 1_555 1_555
C5_60 C6_60 1_555 1_555
C5_60 C10_60 1_555 1_555
C6_60 C7_60 1_555 1_555
C6_60 H6_60 1_555 1_555
C7_60 C8_60 1_555 1_555
C7_60 H7_60 1_555 1_555
C8_60 C9_60 1_555 1_555
C8_60 H8_60 1_555 1_555
C9_60 C10_60 1_555 1_555
C9_60 H9_60 1_555 1_555
C11_60 C12_60 1_555 1_555
C12_60 C13_60 1_555 1_555
C13_60 H13_60 1_555 1_555
S1_61 C2_61 1_555 1_555
S1_61 C11_61 1_555 1_555
C1_61 C2_61 1_555 1_555
C1_61 C10_61 1_555 1_555
C1_61 H1_61 1_555 1_555
C2_61 C3_61 1_555 1_555
C3_61 C4_61 1_555 1_555
C3_61 C12_61 1_555 1_555
C4_61 C5_61 1_555 1_555
C4_61 H4_61 1_555 1_555
C5_61 C6_61 1_555 1_555
C5_61 C10_61 1_555 1_555
C6_61 C7_61 1_555 1_555
C6_61 H6_61 1_555 1_555
C7_61 C8_61 1_555 1_555
C7_61 H7_61 1_555 1_555
C8_61 C9_61 1_555 1_555
C8_61 H8_61 1_555 1_555
C9_61 C10_61 1_555 1_555
C9_61 H9_61 1_555 1_555
C11_61 C12_61 1_555 1_555
C11_61 C13_62 1_555 1_555
C12_61 C13_61 1_555 1_555
C13_61 H13_61 1_555 1_555
C13_61 C11_62 1_555 1_555
S1_62 C2_62 1_555 1_555
S1_62 C11_62 1_555 1_555
C1_62 C2_62 1_555 1_555
C1_62 C10_62 1_555 1_555
C1_62 H1_62 1_555 1_555
C2_62 C3_62 1_555 1_555
C3_62 C4_62 1_555 1_555
C3_62 C12_62 1_555 1_555
C4_62 C5_62 1_555 1_555
C4_62 H4_62 1_555 1_555
C5_62 C6_62 1_555 1_555
C5_62 C10_62 1_555 1_555
C6_62 C7_62 1_555 1_555
C6_62 H6_62 1_555 1_555
C7_62 C8_62 1_555 1_555
C7_62 H7_62 1_555 1_555
C8_62 C9_62 1_555 1_555
C8_62 H8_62 1_555 1_555
C9_62 C10_62 1_555 1_555
C9_62 H9_62 1_555 1_555
C11_62 C12_62 1_555 1_555
C12_62 C13_62 1_555 1_555
C13_62 H13_62 1_555 1_555
S1_63 C2_63 1_555 1_555
S1_63 C11_63 1_555 1_555
C1_63 C2_63 1_555 1_555
C1_63 C10_63 1_555 1_555
C1_63 H1_63 1_555 1_555
C2_63 C3_63 1_555 1_555
C3_63 C4_63 1_555 1_555
C3_63 C12_63 1_555 1_555
C4_63 C5_63 1_555 1_555
C4_63 H4_63 1_555 1_555
C5_63 C6_63 1_555 1_555
C5_63 C10_63 1_555 1_555
C6_63 C7_63 1_555 1_555
C6_63 H6_63 1_555 1_555
C7_63 C8_63 1_555 1_555
C7_63 H7_63 1_555 1_555
C8_63 C9_63 1_555 1_555
C8_63 H8_63 1_555 1_555
C9_63 C10_63 1_555 1_555
C9_63 H9_63 1_555 1_555
C11_63 C12_63 1_555 1_555
C11_63 C13_64 1_555 1_555
C12_63 C13_63 1_555 1_555
C13_63 H13_63 1_555 1_555
C13_63 C11_64 1_555 1_555
S1_64 C2_64 1_555 1_555
S1_64 C11_64 1_555 1_555
C1_64 C2_64 1_555 1_555
C1_64 C10_64 1_555 1_555
C1_64 H1_64 1_555 1_555
C2_64 C3_64 1_555 1_555
C3_64 C4_64 1_555 1_555
C3_64 C12_64 1_555 1_555
C4_64 C5_64 1_555 1_555
C4_64 H4_64 1_555 1_555
C5_64 C6_64 1_555 1_555
C5_64 C10_64 1_555 1_555
C6_64 C7_64 1_555 1_555
C6_64 H6_64 1_555 1_555
C7_64 C8_64 1_555 1_555
C7_64 H7_64 1_555 1_555
C8_64 C9_64 1_555 1_555
C8_64 H8_64 1_555 1_555
C9_64 C10_64 1_555 1_555
C9_64 H9_64 1_555 1_555
C11_64 C12_64 1_555 1_555
C12_64 C13_64 1_555 1_555
C13_64 H13_64 1_555 1_555
S1_65 C2_65 1_555 1_555
S1_65 C11_65 1_555 1_555
C1_65 C2_65 1_555 1_555
C1_65 C10_65 1_555 1_555
C1_65 H1_65 1_555 1_555
C2_65 C3_65 1_555 1_555
C3_65 C4_65 1_555 1_555
C3_65 C12_65 1_555 1_555
C4_65 C5_65 1_555 1_555
C4_65 H4_65 1_555 1_555
C5_65 C6_65 1_555 1_555
C5_65 C10_65 1_555 1_555
C6_65 C7_65 1_555 1_555
C6_65 H6_65 1_555 1_555
C7_65 C8_65 1_555 1_555
C7_65 H7_65 1_555 1_555
C8_65 C9_65 1_555 1_555
C8_65 H8_65 1_555 1_555
C9_65 C10_65 1_555 1_555
C9_65 H9_65 1_555 1_555
C11_65 C12_65 1_555 1_555
C11_65 C13_66 1_555 1_555
C12_65 C13_65 1_555 1_555
C13_65 H13_65 1_555 1_555
C13_65 C11_66 1_555 1_555
S1_66 C2_66 1_555 1_555
S1_66 C11_66 1_555 1_555
C1_66 C2_66 1_555 1_555
C1_66 C10_66 1_555 1_555
C1_66 H1_66 1_555 1_555
C2_66 C3_66 1_555 1_555
C3_66 C4_66 1_555 1_555
C3_66 C12_66 1_555 1_555
C4_66 C5_66 1_555 1_555
C4_66 H4_66 1_555 1_555
C5_66 C6_66 1_555 1_555
C5_66 C10_66 1_555 1_555
C6_66 C7_66 1_555 1_555
C6_66 H6_66 1_555 1_555
C7_66 C8_66 1_555 1_555
C7_66 H7_66 1_555 1_555
C8_66 C9_66 1_555 1_555
C8_66 H8_66 1_555 1_555
C9_66 C10_66 1_555 1_555
C9_66 H9_66 1_555 1_555
C11_66 C12_66 1_555 1_555
C12_66 C13_66 1_555 1_555
C13_66 H13_66 1_555 1_555
S1_67 C2_67 1_555 1_555
S1_67 C11_67 1_555 1_555
C1_67 C2_67 1_555 1_555
C1_67 C10_67 1_555 1_555
C1_67 H1_67 1_555 1_555
C2_67 C3_67 1_555 1_555
C3_67 C4_67 1_555 1_555
C3_67 C12_67 1_555 1_555
C4_67 C5_67 1_555 1_555
C4_67 H4_67 1_555 1_555
C5_67 C6_67 1_555 1_555
C5_67 C10_67 1_555 1_555
C6_67 C7_67 1_555 1_555
C6_67 H6_67 1_555 1_555
C7_67 C8_67 1_555 1_555
C7_67 H7_67 1_555 1_555
C8_67 C9_67 1_555 1_555
C8_67 H8_67 1_555 1_555
C9_67 C10_67 1_555 1_555
C9_67 H9_67 1_555 1_555
C11_67 C12_67 1_555 1_555
C11_67 C13_68 1_555 1_555
C12_67 C13_67 1_555 1_555
C13_67 H13_67 1_555 1_555
C13_67 C11_68 1_555 1_555
S1_68 C2_68 1_555 1_555
S1_68 C11_68 1_555 1_555
C1_68 C2_68 1_555 1_555
C1_68 C10_68 1_555 1_555
C1_68 H1_68 1_555 1_555
C2_68 C3_68 1_555 1_555
C3_68 C4_68 1_555 1_555
C3_68 C12_68 1_555 1_555
C4_68 C5_68 1_555 1_555
C4_68 H4_68 1_555 1_555
C5_68 C6_68 1_555 1_555
C5_68 C10_68 1_555 1_555
C6_68 C7_68 1_555 1_555
C6_68 H6_68 1_555 1_555
C7_68 C8_68 1_555 1_555
C7_68 H7_68 1_555 1_555
C8_68 C9_68 1_555 1_555
C8_68 H8_68 1_555 1_555
C9_68 C10_68 1_555 1_555
C9_68 H9_68 1_555 1_555
C11_68 C12_68 1_555 1_555
C12_68 C13_68 1_555 1_555
C13_68 H13_68 1_555 1_555
S1_69 C2_69 1_555 1_555
S1_69 C11_69 1_555 1_555
C1_69 C2_69 1_555 1_555
C1_69 C10_69 1_555 1_555
C1_69 H1_69 1_555 1_555
C2_69 C3_69 1_555 1_555
C3_69 C4_69 1_555 1_555
C3_69 C12_69 1_555 1_555
C4_69 C5_69 1_555 1_555
C4_69 H4_69 1_555 1_555
C5_69 C6_69 1_555 1_555
C5_69 C10_69 1_555 1_555
C6_69 C7_69 1_555 1_555
C6_69 H6_69 1_555 1_555
C7_69 C8_69 1_555 1_555
C7_69 H7_69 1_555 1_555
C8_69 C9_69 1_555 1_555
C8_69 H8_69 1_555 1_555
C9_69 C10_69 1_555 1_555
C9_69 H9_69 1_555 1_555
C11_69 C12_69 1_555 1_555
C11_69 C13_70 1_555 1_555
C12_69 C13_69 1_555 1_555
C13_69 H13_69 1_555 1_555
C13_69 C11_70 1_555 1_555
S1_70 C2_70 1_555 1_555
S1_70 C11_70 1_555 1_555
C1_70 C2_70 1_555 1_555
C1_70 C10_70 1_555 1_555
C1_70 H1_70 1_555 1_555
C2_70 C3_70 1_555 1_555
C3_70 C4_70 1_555 1_555
C3_70 C12_70 1_555 1_555
C4_70 C5_70 1_555 1_555
C4_70 H4_70 1_555 1_555
C5_70 C6_70 1_555 1_555
C5_70 C10_70 1_555 1_555
C6_70 C7_70 1_555 1_555
C6_70 H6_70 1_555 1_555
C7_70 C8_70 1_555 1_555
C7_70 H7_70 1_555 1_555
C8_70 C9_70 1_555 1_555
C8_70 H8_70 1_555 1_555
C9_70 C10_70 1_555 1_555
C9_70 H9_70 1_555 1_555
C11_70 C12_70 1_555 1_555
C12_70 C13_70 1_555 1_555
C13_70 H13_70 1_555 1_555

#END
