
#######################################################################
#
#                 Cambridge Crystallographic Data Centre
#                                CCDC 
#
#######################################################################
#
# If this CIF has been generated from an entry in the Cambridge 
# Structural Database, then it will include bibliographic, chemical, 
# crystal, experimental, refinement or atomic coordinate data resulting 
# from the CCDC's data processing and validation procedures.
#
#######################################################################

data_TM026_Okamoto_proc
_chemical_formula_moiety         'C230 H270 S10'
_cell_length_a                   1
_cell_length_b                   1
_cell_length_c                   1
_cell_angle_alpha                90
_cell_angle_beta                 90
_cell_angle_gamma                90
_cell_volume                     1
loop_
_atom_site_label
_atom_site_type_symbol
_atom_site_fract_x
_atom_site_fract_y
_atom_site_fract_z
S1 S 18.11054(4) 0.8767(2) -2.3101(2)
C1 C 15.4558(2) 0.6354(8) -1.6348(10)
C2 C 16.74377(19) 0.4017(7) -1.3304(10)
C3 C 17.1719(2) -0.1673(8) -0.1143(11)
C4 C 16.1916(2) -0.5690(7) 0.8043(10)
C5 C 14.8163(2) -0.3570(8) 0.5207(12)
C6 C 13.7748(2) -0.7310(7) 1.4007(10)
C7 C 12.4554(2) -0.4588(9) 1.1172(12)
C8 C 12.0855(2) 0.1488(8) -0.1033(13)
C9 C 13.0713(2) 0.5128(8) -0.9870(11)
C10 C 14.4363(2) 0.2552(9) -0.7260(13)
C11 C 18.60262(18) -0.1781(8) 0.0361(12)
C12 C 19.25643(19) 0.4094(8) -1.0842(10)
C13 C 20.60892(19) 0.5968(7) -1.1343(10)
C14 C 10.63059(19) 0.4688(8) -0.3526(11)
C15 C 10.03422(17) -0.1573(8) -1.5810(11)
C16 C 8.61005(18) 0.2652(8) -1.8756(12)
C17 C 7.99329(19) -0.2930(9) -3.1382(11)
C18 C 6.60553(19) 0.2228(9) -3.4389(13)
C19 C 6.0041(2) -0.3077(9) -4.6978(13)
C20 C 4.6078(2) 0.2514(9) -4.9679(13)
C21 C 3.9651(2) -0.2922(9) -6.2305(14)
C22 C 2.5690(2) 0.2583(11) -6.5037(14)
C23 C 1.91910(17) -0.2768(11) -7.7388(14)
H1 H 15.2292 1.05003 -2.4482
H4 H 16.44589 -0.97940 1.6110
H6 H 13.98873 -1.1759 2.20046
H7 H 11.79071 -0.68046 1.74431
H9 H 12.83416 0.94563 -1.78647
H13 H 21.01389 0.99582 -1.88328
H14A H 10.11195 0.1781 0.42639
H14B H 10.53523 1.44150 -0.4235
H15A H 10.05609 -1.1319 -1.47724
H15B H 10.59426 0.07055 -2.35196
H16A H 8.04851 0.00008 -1.11765
H16B H 8.58587 1.24333 -1.92966
H17A H 8.5783 -0.07680 -3.89435
H17B H 7.95521 -1.26924 -3.06296
H18A H 6.01741 -0.00802 -2.68937
H18B H 6.64080 1.20008 -3.49686
H19A H 5.94962 -1.28474 -4.63938
H19B H 6.58810 -0.08420 -5.45097
H20A H 4.03069 0.04171 -4.20444
H20B H 4.66711 1.2268 -5.03784
H21A H 3.912 -1.26824 -6.16160
H21B H 4.54336 -0.07988 -6.99373
H22A H 1.99750 0.05351 -5.73521
H22B H 2.62781 1.23354 -6.57840
H23A H 1.87846 -1.24480 -7.68969
H23B H 2.43645 -0.01434 -8.51662
H23C H 1.02069 0.08135 -7.81210
S1_2 S 21.87046(4) -0.8767(2) 2.3101(2)
C1_2 C 24.5252(2) -0.6354(8) 1.6348(10)
C2_2 C 23.23723(19) -0.4017(7) 1.3304(10)
C3_2 C 22.8091(2) 0.1673(8) 0.1143(11)
C4_2 C 23.7894(2) 0.5690(7) -0.8043(10)
C5_2 C 25.1647(2) 0.3570(8) -0.5207(12)
C6_2 C 26.2062(2) 0.7310(7) -1.4007(10)
C7_2 C 27.5256(2) 0.4588(9) -1.1172(12)
C8_2 C 27.8955(2) -0.1488(8) 0.1033(13)
C9_2 C 26.9097(2) -0.5128(8) 0.9870(11)
C10_2 C 25.5447(2) -0.2552(9) 0.7260(13)
C11_2 C 21.37838(18) 0.1781(8) -0.0361(12)
C12_2 C 20.72457(19) -0.4094(8) 1.0842(10)
C13_2 C 19.37208(19) -0.5968(7) 1.1343(10)
C14_2 C 29.35041(19) -0.4688(8) 0.3526(11)
C15_2 C 29.94678(17) 0.1573(8) 1.5810(11)
C16_2 C 31.37095(18) -0.2652(8) 1.8756(12)
C17_2 C 31.98771(19) 0.2930(9) 3.1382(11)
C18_2 C 33.37547(19) -0.2228(9) 3.4389(13)
C19_2 C 33.9769(2) 0.3077(9) 4.6978(13)
C20_2 C 35.3732(2) -0.2514(9) 4.9679(13)
C21_2 C 36.0159(2) 0.2922(9) 6.2305(14)
C22_2 C 37.4120(2) -0.2583(11) 6.5037(14)
C23_2 C 38.06190(17) 0.2768(11) 7.7388(14)
H1_2 H 24.7518 -1.05003 2.4482
H4_2 H 23.53511 0.97940 -1.6110
H6_2 H 25.99227 1.1759 -2.20046
H7_2 H 28.19029 0.68046 -1.74431
H9_2 H 27.14684 -0.94563 1.78647
H13_2 H 18.96711 -0.99582 1.88328
H14A_2 H 29.86905 -0.1781 -0.42639
H14B_2 H 29.44577 -1.44150 0.4235
H15A_2 H 29.92491 1.1319 1.47724
H15B_2 H 29.38674 -0.07055 2.35196
H16A_2 H 31.93249 -0.00008 1.11765
H16B_2 H 31.39513 -1.24333 1.92966
H17A_2 H 31.4027 0.07680 3.89435
H17B_2 H 32.02579 1.26924 3.06296
H18A_2 H 33.96359 0.00802 2.68937
H18B_2 H 33.34020 -1.20008 3.49686
H19A_2 H 34.03138 1.28474 4.63938
H19B_2 H 33.39290 0.08420 5.45097
H20A_2 H 35.95031 -0.04171 4.20444
H20B_2 H 35.31389 -1.2268 5.03784
H21A_2 H 36.069 1.26824 6.16160
H21B_2 H 35.43764 0.07988 6.99373
H22A_2 H 37.98350 -0.05351 5.73521
H22B_2 H 37.35319 -1.23354 6.57840
H23A_2 H 38.10254 1.24480 7.68969
H23B_2 H 37.54455 0.01434 8.51662
H23C_2 H 38.96031 -0.08135 7.81210
S1_3 S 17.68019(4) 0.8767(2) 3.8013(2)
C1_3 C 15.0255(2) 0.6354(8) 4.4766(10)
C2_3 C 16.31342(19) 0.4017(7) 4.7809(10)
C3_3 C 16.7415(2) -0.1673(8) 5.9971(11)
C4_3 C 15.7613(2) -0.5690(7) 6.9156(10)
C5_3 C 14.3859(2) -0.3570(8) 6.6321(12)
C6_3 C 13.3444(2) -0.7310(7) 7.5121(10)
C7_3 C 12.0250(2) -0.4588(9) 7.2285(12)
C8_3 C 11.6552(2) 0.1488(8) 6.0081(13)
C9_3 C 12.6410(2) 0.5128(8) 5.1244(11)
C10_3 C 14.0059(2) 0.2552(9) 5.3853(13)
C11_3 C 18.17227(18) -0.1781(8) 6.1474(12)
C12_3 C 18.82608(19) 0.4094(8) 5.0272(10)
C13_3 C 20.17857(19) 0.5968(7) 4.9771(10)
C14_3 C 10.20024(19) 0.4688(8) 5.7587(11)
C15_3 C 9.60387(17) -0.1573(8) 4.5304(11)
C16_3 C 8.17970(18) 0.2652(8) 4.2358(12)
C17_3 C 7.56294(19) -0.2930(9) 2.9732(11)
C18_3 C 6.17518(19) 0.2228(9) 2.6725(13)
C19_3 C 5.5738(2) -0.3077(9) 1.4136(13)
C20_3 C 4.1775(2) 0.2514(9) 1.1434(13)
C21_3 C 3.5347(2) -0.2922(9) -0.1192(14)
C22_3 C 2.1386(2) 0.2583(11) -0.3923(14)
C23_3 C 1.48875(17) -0.2768(11) -1.6275(14)
H1_3 H 14.7989 1.05003 3.6632
H4_3 H 16.01554 -0.97940 7.7223
H6_3 H 13.55838 -1.1759 8.31183
H7_3 H 11.36036 -0.68046 7.85567
H9_3 H 12.40381 0.94563 4.32489
H13_3 H 20.58354 0.99582 4.22809
H14A_3 H 9.68161 0.1781 6.53776
H14B_3 H 10.10488 1.44150 5.6878
H15A_3 H 9.62574 -1.1319 4.63413
H15B_3 H 10.16391 0.07055 3.75941
H16A_3 H 7.61817 0.00008 4.99372
H16B_3 H 8.15552 1.24333 4.18170
H17A_3 H 8.1479 -0.07680 2.21702
H17B_3 H 7.52486 -1.26924 3.04841
H18A_3 H 5.58706 -0.00802 3.42200
H18B_3 H 6.21045 1.20008 2.61450
H19A_3 H 5.51927 -1.28474 1.47198
H19B_3 H 6.15775 -0.08420 0.66039
H20A_3 H 3.60034 0.04171 1.90693
H20B_3 H 4.23676 1.2268 1.07352
H21A_3 H 3.482 -1.26824 -0.05024
H21B_3 H 4.11301 -0.07988 -0.88236
H22A_3 H 1.56715 0.05351 0.37615
H22B_3 H 2.19746 1.23354 -0.46703
H23A_3 H 1.44811 -1.24480 -1.57832
H23B_3 H 2.00610 -0.01434 -2.40525
H23C_3 H 0.59034 0.08135 -1.70073
S1_4 S 21.44011(4) -0.8767(2) 8.4215(2)
C1_4 C 24.0948(2) -0.6354(8) 7.7462(10)
C2_4 C 22.80688(19) -0.4017(7) 7.4418(10)
C3_4 C 22.3788(2) 0.1673(8) 6.2256(11)
C4_4 C 23.3590(2) 0.5690(7) 5.3071(10)
C5_4 C 24.7344(2) 0.3570(8) 5.5907(12)
C6_4 C 25.7759(2) 0.7310(7) 4.7106(10)
C7_4 C 27.0953(2) 0.4588(9) 4.9942(12)
C8_4 C 27.4651(2) -0.1488(8) 6.2146(13)
C9_4 C 26.4793(2) -0.5128(8) 7.0984(11)
C10_4 C 25.1144(2) -0.2552(9) 6.8374(13)
C11_4 C 20.94803(18) 0.1781(8) 6.0753(12)
C12_4 C 20.29422(19) -0.4094(8) 7.1955(10)
C13_4 C 18.94173(19) -0.5968(7) 7.2456(10)
C14_4 C 28.92006(19) -0.4688(8) 6.4640(11)
C15_4 C 29.51643(17) 0.1573(8) 7.6924(11)
C16_4 C 30.94060(18) -0.2652(8) 7.9869(12)
C17_4 C 31.55736(19) 0.2930(9) 9.2496(11)
C18_4 C 32.94512(19) -0.2228(9) 9.5502(13)
C19_4 C 33.5465(2) 0.3077(9) 10.8092(13)
C20_4 C 34.9428(2) -0.2514(9) 11.0793(13)
C21_4 C 35.5856(2) 0.2922(9) 12.3419(14)
C22_4 C 36.9817(2) -0.2583(11) 12.6151(14)
C23_4 C 37.63155(17) 0.2768(11) 13.8502(14)
H1_4 H 24.3214 -1.05003 8.5596
H4_4 H 23.10476 0.97940 4.5004
H6_4 H 25.56192 1.1759 3.91091
H7_4 H 27.75994 0.68046 4.36706
H9_4 H 26.71649 -0.94563 7.89784
H13_4 H 18.53676 -0.99582 7.99465
H14A_4 H 29.43870 -0.1781 5.68498
H14B_4 H 29.01542 -1.44150 6.5349
H15A_4 H 29.49456 1.1319 7.58861
H15B_4 H 28.95639 -0.07055 8.46333
H16A_4 H 31.50214 -0.00008 7.22901
H16B_4 H 30.96478 -1.24333 8.04103
H17A_4 H 30.9724 0.07680 10.00571
H17B_4 H 31.59544 1.26924 9.17432
H18A_4 H 33.53324 0.00802 8.80073
H18B_4 H 32.90985 -1.20008 9.60823
H19A_4 H 33.60103 1.28474 10.75075
H19B_4 H 32.96255 0.08420 11.56234
H20A_4 H 35.51996 -0.04171 10.31580
H20B_4 H 34.88355 -1.2268 11.14921
H21A_4 H 35.638 1.26824 12.27297
H21B_4 H 35.00729 0.07988 13.10509
H22A_4 H 37.55315 -0.05351 11.84658
H22B_4 H 36.92284 -1.23354 12.68976
H23A_4 H 37.67219 1.24480 13.80105
H23B_4 H 37.11420 0.01434 14.62798
H23C_4 H 38.52996 -0.08135 13.92347
S1_5 S 18.11054(4) 8.5873(2) -2.3101(2)
C1_5 C 15.4558(2) 8.3460(8) -1.6348(10)
C2_5 C 16.74377(19) 8.1123(7) -1.3304(10)
C3_5 C 17.1719(2) 7.5433(8) -0.1143(11)
C4_5 C 16.1916(2) 7.1416(7) 0.8043(10)
C5_5 C 14.8163(2) 7.3536(8) 0.5207(12)
C6_5 C 13.7748(2) 6.9796(7) 1.4007(10)
C7_5 C 12.4554(2) 7.2518(9) 1.1172(12)
C8_5 C 12.0855(2) 7.8594(8) -0.1033(13)
C9_5 C 13.0713(2) 8.2234(8) -0.9870(11)
C10_5 C 14.4363(2) 7.9658(9) -0.7260(13)
C11_5 C 18.60262(18) 7.5325(8) 0.0361(12)
C12_5 C 19.25643(19) 8.1200(8) -1.0842(10)
C13_5 C 20.60892(19) 8.3074(7) -1.1343(10)
C14_5 C 10.63059(19) 8.1794(8) -0.3526(11)
C15_5 C 10.03422(17) 7.5533(8) -1.5810(11)
C16_5 C 8.61005(18) 7.9758(8) -1.8756(12)
C17_5 C 7.99329(19) 7.4176(9) -3.1382(11)
C18_5 C 6.60553(19) 7.9334(9) -3.4389(13)
C19_5 C 6.0041(2) 7.4029(9) -4.6978(13)
C20_5 C 4.6078(2) 7.9620(9) -4.9679(13)
C21_5 C 3.9651(2) 7.4184(9) -6.2305(14)
C22_5 C 2.5690(2) 7.9689(11) -6.5037(14)
C23_5 C 1.91910(17) 7.4338(11) -7.7388(14)
H1_5 H 15.2292 8.76063 -2.4482
H4_5 H 16.44589 6.73120 1.6110
H6_5 H 13.98873 6.5347 2.20046
H7_5 H 11.79071 7.03014 1.74431
H9_5 H 12.83416 8.65623 -1.78647
H13_5 H 21.01389 8.70642 -1.88328
H14A_5 H 10.11195 7.8887 0.42639
H14B_5 H 10.53523 9.15210 -0.4235
H15A_5 H 10.05609 6.5787 -1.47724
H15B_5 H 10.59426 7.78115 -2.35196
H16A_5 H 8.04851 7.71068 -1.11765
H16B_5 H 8.58587 8.95393 -1.92966
H17A_5 H 8.5783 7.63380 -3.89435
H17B_5 H 7.95521 6.44136 -3.06296
H18A_5 H 6.01741 7.70258 -2.68937
H18B_5 H 6.64080 8.91068 -3.49686
H19A_5 H 5.94962 6.42586 -4.63938
H19B_5 H 6.58810 7.62640 -5.45097
H20A_5 H 4.03069 7.75231 -4.20444
H20B_5 H 4.66711 8.9374 -5.03784
H21A_5 H 3.912 6.44236 -6.16160
H21B_5 H 4.54336 7.63072 -6.99373
H22A_5 H 1.99750 7.76411 -5.73521
H22B_5 H 2.62781 8.94414 -6.57840
H23A_5 H 1.87846 6.46580 -7.68969
H23B_5 H 2.43645 7.69626 -8.51662
H23C_5 H 1.02069 7.79195 -7.81210
S1_6 S 21.87046(4) 6.8339(2) 2.3101(2)
C1_6 C 24.5252(2) 7.0752(8) 1.6348(10)
C2_6 C 23.23723(19) 7.3089(7) 1.3304(10)
C3_6 C 22.8091(2) 7.8779(8) 0.1143(11)
C4_6 C 23.7894(2) 8.2796(7) -0.8043(10)
C5_6 C 25.1647(2) 8.0676(8) -0.5207(12)
C6_6 C 26.2062(2) 8.4416(7) -1.4007(10)
C7_6 C 27.5256(2) 8.1694(9) -1.1172(12)
C8_6 C 27.8955(2) 7.5618(8) 0.1033(13)
C9_6 C 26.9097(2) 7.1978(8) 0.9870(11)
C10_6 C 25.5447(2) 7.4554(9) 0.7260(13)
C11_6 C 21.37838(18) 7.8887(8) -0.0361(12)
C12_6 C 20.72457(19) 7.3012(8) 1.0842(10)
C13_6 C 19.37208(19) 7.1138(7) 1.1343(10)
C14_6 C 29.35041(19) 7.2418(8) 0.3526(11)
C15_6 C 29.94678(17) 7.8679(8) 1.5810(11)
C16_6 C 31.37095(18) 7.4454(8) 1.8756(12)
C17_6 C 31.98771(19) 8.0036(9) 3.1382(11)
C18_6 C 33.37547(19) 7.4878(9) 3.4389(13)
C19_6 C 33.9769(2) 8.0183(9) 4.6978(13)
C20_6 C 35.3732(2) 7.4592(9) 4.9679(13)
C21_6 C 36.0159(2) 8.0028(9) 6.2305(14)
C22_6 C 37.4120(2) 7.4523(11) 6.5037(14)
C23_6 C 38.06190(17) 7.9874(11) 7.7388(14)
H1_6 H 24.7518 6.66057 2.4482
H4_6 H 23.53511 8.69000 -1.6110
H6_6 H 25.99227 8.8865 -2.20046
H7_6 H 28.19029 8.39106 -1.74431
H9_6 H 27.14684 6.76497 1.78647
H13_6 H 18.96711 6.71478 1.88328
H14A_6 H 29.86905 7.5325 -0.42639
H14B_6 H 29.44577 6.26910 0.4235
H15A_6 H 29.92491 8.8425 1.47724
H15B_6 H 29.38674 7.64005 2.35196
H16A_6 H 31.93249 7.71052 1.11765
H16B_6 H 31.39513 6.46727 1.92966
H17A_6 H 31.4027 7.78740 3.89435
H17B_6 H 32.02579 8.97984 3.06296
H18A_6 H 33.96359 7.71862 2.68937
H18B_6 H 33.34020 6.51052 3.49686
H19A_6 H 34.03138 8.99534 4.63938
H19B_6 H 33.39290 7.79480 5.45097
H20A_6 H 35.95031 7.66889 4.20444
H20B_6 H 35.31389 6.4838 5.03784
H21A_6 H 36.069 8.97884 6.16160
H21B_6 H 35.43764 7.79048 6.99373
H22A_6 H 37.98350 7.65709 5.73521
H22B_6 H 37.35319 6.47706 6.57840
H23A_6 H 38.10254 8.95540 7.68969
H23B_6 H 37.54455 7.72494 8.51662
H23C_6 H 38.96031 7.62925 7.81210
S1_7 S 17.68019(4) 8.5873(2) 3.8013(2)
C1_7 C 15.0255(2) 8.3460(8) 4.4766(10)
C2_7 C 16.31342(19) 8.1123(7) 4.7809(10)
C3_7 C 16.7415(2) 7.5433(8) 5.9971(11)
C4_7 C 15.7613(2) 7.1416(7) 6.9156(10)
C5_7 C 14.3859(2) 7.3536(8) 6.6321(12)
C6_7 C 13.3444(2) 6.9796(7) 7.5121(10)
C7_7 C 12.0250(2) 7.2518(9) 7.2285(12)
C8_7 C 11.6552(2) 7.8594(8) 6.0081(13)
C9_7 C 12.6410(2) 8.2234(8) 5.1244(11)
C10_7 C 14.0059(2) 7.9658(9) 5.3853(13)
C11_7 C 18.17227(18) 7.5325(8) 6.1474(12)
C12_7 C 18.82608(19) 8.1200(8) 5.0272(10)
C13_7 C 20.17857(19) 8.3074(7) 4.9771(10)
C14_7 C 10.20024(19) 8.1794(8) 5.7587(11)
C15_7 C 9.60387(17) 7.5533(8) 4.5304(11)
C16_7 C 8.17970(18) 7.9758(8) 4.2358(12)
C17_7 C 7.56294(19) 7.4176(9) 2.9732(11)
C18_7 C 6.17518(19) 7.9334(9) 2.6725(13)
C19_7 C 5.5738(2) 7.4029(9) 1.4136(13)
C20_7 C 4.1775(2) 7.9620(9) 1.1434(13)
C21_7 C 3.5347(2) 7.4184(9) -0.1192(14)
C22_7 C 2.1386(2) 7.9689(11) -0.3923(14)
C23_7 C 1.48875(17) 7.4338(11) -1.6275(14)
H1_7 H 14.7989 8.76063 3.6632
H4_7 H 16.01554 6.73120 7.7223
H6_7 H 13.55838 6.5347 8.31183
H7_7 H 11.36036 7.03014 7.85567
H9_7 H 12.40381 8.65623 4.32489
H13_7 H 20.58354 8.70642 4.22809
H14A_7 H 9.68161 7.8887 6.53776
H14B_7 H 10.10488 9.15210 5.6878
H15A_7 H 9.62574 6.5787 4.63413
H15B_7 H 10.16391 7.78115 3.75941
H16A_7 H 7.61817 7.71068 4.99372
H16B_7 H 8.15552 8.95393 4.18170
H17A_7 H 8.1479 7.63380 2.21702
H17B_7 H 7.52486 6.44136 3.04841
H18A_7 H 5.58706 7.70258 3.42200
H18B_7 H 6.21045 8.91068 2.61450
H19A_7 H 5.51927 6.42586 1.47198
H19B_7 H 6.15775 7.62640 0.66039
H20A_7 H 3.60034 7.75231 1.90693
H20B_7 H 4.23676 8.9374 1.07352
H21A_7 H 3.482 6.44236 -0.05024
H21B_7 H 4.11301 7.63072 -0.88236
H22A_7 H 1.56715 7.76411 0.37615
H22B_7 H 2.19746 8.94414 -0.46703
H23A_7 H 1.44811 6.46580 -1.57832
H23B_7 H 2.00610 7.69626 -2.40525
H23C_7 H 0.59034 7.79195 -1.70073
S1_8 S 21.44011(4) 6.8339(2) 8.4215(2)
C1_8 C 24.0948(2) 7.0752(8) 7.7462(10)
C2_8 C 22.80688(19) 7.3089(7) 7.4418(10)
C3_8 C 22.3788(2) 7.8779(8) 6.2256(11)
C4_8 C 23.3590(2) 8.2796(7) 5.3071(10)
C5_8 C 24.7344(2) 8.0676(8) 5.5907(12)
C6_8 C 25.7759(2) 8.4416(7) 4.7106(10)
C7_8 C 27.0953(2) 8.1694(9) 4.9942(12)
C8_8 C 27.4651(2) 7.5618(8) 6.2146(13)
C9_8 C 26.4793(2) 7.1978(8) 7.0984(11)
C10_8 C 25.1144(2) 7.4554(9) 6.8374(13)
C11_8 C 20.94803(18) 7.8887(8) 6.0753(12)
C12_8 C 20.29422(19) 7.3012(8) 7.1955(10)
C13_8 C 18.94173(19) 7.1138(7) 7.2456(10)
C14_8 C 28.92006(19) 7.2418(8) 6.4640(11)
C15_8 C 29.51643(17) 7.8679(8) 7.6924(11)
C16_8 C 30.94060(18) 7.4454(8) 7.9869(12)
C17_8 C 31.55736(19) 8.0036(9) 9.2496(11)
C18_8 C 32.94512(19) 7.4878(9) 9.5502(13)
C19_8 C 33.5465(2) 8.0183(9) 10.8092(13)
C20_8 C 34.9428(2) 7.4592(9) 11.0793(13)
C21_8 C 35.5856(2) 8.0028(9) 12.3419(14)
C22_8 C 36.9817(2) 7.4523(11) 12.6151(14)
C23_8 C 37.63155(17) 7.9874(11) 13.8502(14)
H1_8 H 24.3214 6.66057 8.5596
H4_8 H 23.10476 8.69000 4.5004
H6_8 H 25.56192 8.8865 3.91091
H7_8 H 27.75994 8.39106 4.36706
H9_8 H 26.71649 6.76497 7.89784
H13_8 H 18.53676 6.71478 7.99465
H14A_8 H 29.43870 7.5325 5.68498
H14B_8 H 29.01542 6.26910 6.5349
H15A_8 H 29.49456 8.8425 7.58861
H15B_8 H 28.95639 7.64005 8.46333
H16A_8 H 31.50214 7.71052 7.22901
H16B_8 H 30.96478 6.46727 8.04103
H17A_8 H 30.9724 7.78740 10.00571
H17B_8 H 31.59544 8.97984 9.17432
H18A_8 H 33.53324 7.71862 8.80073
H18B_8 H 32.90985 6.51052 9.60823
H19A_8 H 33.60103 8.99534 10.75075
H19B_8 H 32.96255 7.79480 11.56234
H20A_8 H 35.51996 7.66889 10.31580
H20B_8 H 34.88355 6.4838 11.14921
H21A_8 H 35.638 8.97884 12.27297
H21B_8 H 35.00729 7.79048 13.10509
H22A_8 H 37.55315 7.65709 11.84658
H22B_8 H 36.92284 6.47706 12.68976
H23A_8 H 37.67219 8.95540 13.80105
H23B_8 H 37.11420 7.72494 14.62798
H23C_8 H 38.52996 7.62925 13.92347
S1_9 S 21.65528(4) 4.7320(2) 5.3658(2)
C1_9 C 24.3100(2) 4.4907(8) 4.6905(10)
C2_9 C 23.02205(19) 4.2570(7) 4.3861(10)
C3_9 C 22.5939(2) 3.6880(8) 3.1700(11)
C4_9 C 23.5742(2) 3.2863(7) 2.2514(10)
C5_9 C 24.9495(2) 3.4983(8) 2.5350(12)
C6_9 C 25.9911(2) 3.1243(7) 1.6550(10)
C7_9 C 27.3104(2) 3.3965(9) 1.9385(12)
C8_9 C 27.6803(2) 4.0041(8) 3.1590(13)
C9_9 C 26.6945(2) 4.3681(8) 4.0427(11)
C10_9 C 25.3295(2) 4.1105(9) 3.7817(13)
C11_9 C 21.16321(18) 3.6772(8) 3.0196(12)
C12_9 C 20.50940(19) 4.2647(8) 4.1398(10)
C13_9 C 19.15691(19) 4.4521(7) 4.1900(10)
C14_9 C 29.13523(19) 4.3241(8) 3.4083(11)
C15_9 C 29.73161(17) 3.6980(8) 4.6367(11)
C16_9 C 31.15578(18) 4.1205(8) 4.9313(12)
C17_9 C 31.77253(19) 3.5623(9) 6.1939(11)
C18_9 C 33.16029(19) 4.0781(9) 6.4945(13)
C19_9 C 33.7617(2) 3.5476(9) 7.7535(13)
C20_9 C 35.1580(2) 4.1067(9) 8.0236(13)
C21_9 C 35.8008(2) 3.5631(9) 9.2862(14)
C22_9 C 37.1969(2) 4.1136(11) 9.5594(14)
C23_9 C 37.84673(17) 3.5785(11) 10.7945(14)
H1_9 H 24.5366 4.90533 5.5039
H4_9 H 23.31993 2.87590 1.4447
H6_9 H 25.77710 2.6794 0.85522
H7_9 H 27.97512 3.17484 1.31138
H9_9 H 26.93166 4.80093 4.84216
H13_9 H 18.75193 4.85112 4.93896
H14A_9 H 29.65387 4.0334 2.62929
H14B_9 H 29.23059 5.29680 3.4792
H15A_9 H 29.70973 2.7234 4.53292
H15B_9 H 29.17156 3.92585 5.40764
H16A_9 H 31.71731 3.85538 4.17333
H16B_9 H 31.17996 5.09863 4.98535
H17A_9 H 31.1875 3.77850 6.95003
H17B_9 H 31.81062 2.58606 6.11864
H18A_9 H 33.74842 3.84728 5.74505
H18B_9 H 33.12502 5.05538 6.55255
H19A_9 H 33.81620 2.57056 7.69507
H19B_9 H 33.17773 3.77110 8.50666
H20A_9 H 35.73513 3.89701 7.26012
H20B_9 H 35.09872 5.0821 8.09353
H21A_9 H 35.854 2.58706 9.21729
H21B_9 H 35.22247 3.77542 10.04941
H22A_9 H 37.76832 3.90881 8.79090
H22B_9 H 37.13802 5.08884 9.63408
H23A_9 H 37.88737 2.61050 10.74537
H23B_9 H 37.32938 3.84096 11.57230
H23C_9 H 38.74514 3.93665 10.86778
S1_10 S 17.89537(4) 2.9786(2) 0.7456(2)
C1_10 C 15.2407(2) 3.2199(8) 1.4209(10)
C2_10 C 16.52860(19) 3.4536(7) 1.7252(10)
C3_10 C 16.9567(2) 4.0226(8) 2.9414(11)
C4_10 C 15.9765(2) 4.4243(7) 3.8599(10)
C5_10 C 14.6011(2) 4.2123(8) 3.5764(12)
C6_10 C 13.5596(2) 4.5863(7) 4.4564(10)
C7_10 C 12.2402(2) 4.3141(9) 4.1728(12)
C8_10 C 11.8704(2) 3.7065(8) 2.9524(13)
C9_10 C 12.8561(2) 3.3425(8) 2.0687(11)
C10_10 C 14.2211(2) 3.6001(9) 2.3297(13)
C11_10 C 18.38744(18) 4.0334(8) 3.0917(12)
C12_10 C 19.04125(19) 3.4459(8) 1.9715(10)
C13_10 C 20.39374(19) 3.2585(7) 1.9214(10)
C14_10 C 10.41542(19) 3.3865(8) 2.7031(11)
C15_10 C 9.81904(17) 4.0126(8) 1.4747(11)
C16_10 C 8.39487(18) 3.5901(8) 1.1801(12)
C17_10 C 7.77812(19) 4.1483(9) -0.0825(11)
C18_10 C 6.39036(19) 3.6325(9) -0.3832(13)
C19_10 C 5.7889(2) 4.1630(9) -1.6421(13)
C20_10 C 4.3926(2) 3.6039(9) -1.9122(13)
C21_10 C 3.7499(2) 4.1475(9) -3.1749(14)
C22_10 C 2.3538(2) 3.5970(11) -3.4480(14)
C23_10 C 1.70392(17) 4.1321(11) -4.6831(14)
H1_10 H 15.0141 2.80527 0.6075
H4_10 H 16.23072 4.83470 4.6666
H6_10 H 13.77355 5.0312 5.25614
H7_10 H 11.57553 4.53576 4.79999
H9_10 H 12.61899 2.90967 1.26921
H13_10 H 20.79872 2.85948 1.17240
H14A_10 H 9.89678 3.6772 3.48207
H14B_10 H 10.32006 2.41380 2.6322
H15A_10 H 9.84092 4.9872 1.57844
H15B_10 H 10.37909 3.78475 0.70372
H16A_10 H 7.83334 3.85522 1.93804
H16B_10 H 8.37069 2.61197 1.12602
H17A_10 H 8.3631 3.93210 -0.83866
H17B_10 H 7.74003 5.12454 -0.00727
H18A_10 H 5.80224 3.86332 0.36632
H18B_10 H 6.42563 2.65522 -0.44118
H19A_10 H 5.73445 5.14004 -1.58370
H19B_10 H 6.37292 3.93950 -2.39529
H20A_10 H 3.81552 3.81359 -1.14875
H20B_10 H 4.45193 2.6285 -1.98216
H21A_10 H 3.697 5.12354 -3.10592
H21B_10 H 4.32818 3.93518 -3.93804
H22A_10 H 1.78233 3.80179 -2.67953
H22B_10 H 2.41263 2.62176 -3.52271
H23A_10 H 1.66328 5.10010 -4.63400
H23B_10 H 2.22127 3.86964 -5.46093
H23C_10 H 0.80551 3.77395 -4.75642
loop_
_geom_bond_atom_site_label_1
_geom_bond_atom_site_label_2
_geom_bond_site_symmetry_1
_geom_bond_site_symmetry_2
S1 C2 1_555 1_555
S1 C12 1_555 1_555
C1 C2 1_555 1_555
C1 C10 1_555 1_555
C1 H1 1_555 1_555
C2 C3 1_555 1_555
C3 C4 1_555 1_555
C3 C11 1_555 1_555
C4 C5 1_555 1_555
C4 H4 1_555 1_555
C5 C6 1_555 1_555
C5 C10 1_555 1_555
C6 C7 1_555 1_555
C6 H6 1_555 1_555
C7 C8 1_555 1_555
C7 H7 1_555 1_555
C8 C9 1_555 1_555
C8 C14 1_555 1_555
C9 C10 1_555 1_555
C9 H9 1_555 1_555
C11 C12 1_555 1_555
C11 C13_2 1_555 1_555
C12 C13 1_555 1_555
C13 H13 1_555 1_555
C13 C11_2 1_555 1_555
C14 C15 1_555 1_555
C14 H14A 1_555 1_555
C14 H14B 1_555 1_555
C15 C16 1_555 1_555
C15 H15A 1_555 1_555
C15 H15B 1_555 1_555
C16 C17 1_555 1_555
C16 H16A 1_555 1_555
C16 H16B 1_555 1_555
C17 C18 1_555 1_555
C17 H17A 1_555 1_555
C17 H17B 1_555 1_555
C18 C19 1_555 1_555
C18 H18A 1_555 1_555
C18 H18B 1_555 1_555
C19 C20 1_555 1_555
C19 H19A 1_555 1_555
C19 H19B 1_555 1_555
C20 C21 1_555 1_555
C20 H20A 1_555 1_555
C20 H20B 1_555 1_555
C21 C22 1_555 1_555
C21 H21A 1_555 1_555
C21 H21B 1_555 1_555
C22 C23 1_555 1_555
C22 H22A 1_555 1_555
C22 H22B 1_555 1_555
C23 H23A 1_555 1_555
C23 H23B 1_555 1_555
C23 H23C 1_555 1_555
S1_2 C2_2 1_555 1_555
S1_2 C12_2 1_555 1_555
C1_2 C2_2 1_555 1_555
C1_2 C10_2 1_555 1_555
C1_2 H1_2 1_555 1_555
C2_2 C3_2 1_555 1_555
C3_2 C4_2 1_555 1_555
C3_2 C11_2 1_555 1_555
C4_2 C5_2 1_555 1_555
C4_2 H4_2 1_555 1_555
C5_2 C6_2 1_555 1_555
C5_2 C10_2 1_555 1_555
C6_2 C7_2 1_555 1_555
C6_2 H6_2 1_555 1_555
C7_2 C8_2 1_555 1_555
C7_2 H7_2 1_555 1_555
C8_2 C9_2 1_555 1_555
C8_2 C14_2 1_555 1_555
C9_2 C10_2 1_555 1_555
C9_2 H9_2 1_555 1_555
C11_2 C12_2 1_555 1_555
C12_2 C13_2 1_555 1_555
C13_2 H13_2 1_555 1_555
C14_2 C15_2 1_555 1_555
C14_2 H14A_2 1_555 1_555
C14_2 H14B_2 1_555 1_555
C15_2 C16_2 1_555 1_555
C15_2 H15A_2 1_555 1_555
C15_2 H15B_2 1_555 1_555
C16_2 C17_2 1_555 1_555
C16_2 H16A_2 1_555 1_555
C16_2 H16B_2 1_555 1_555
C17_2 C18_2 1_555 1_555
C17_2 H17A_2 1_555 1_555
C17_2 H17B_2 1_555 1_555
C18_2 C19_2 1_555 1_555
C18_2 H18A_2 1_555 1_555
C18_2 H18B_2 1_555 1_555
C19_2 C20_2 1_555 1_555
C19_2 H19A_2 1_555 1_555
C19_2 H19B_2 1_555 1_555
C20_2 C21_2 1_555 1_555
C20_2 H20A_2 1_555 1_555
C20_2 H20B_2 1_555 1_555
C21_2 C22_2 1_555 1_555
C21_2 H21A_2 1_555 1_555
C21_2 H21B_2 1_555 1_555
C22_2 C23_2 1_555 1_555
C22_2 H22A_2 1_555 1_555
C22_2 H22B_2 1_555 1_555
C23_2 H23A_2 1_555 1_555
C23_2 H23B_2 1_555 1_555
C23_2 H23C_2 1_555 1_555
S1_3 C2_3 1_555 1_555
S1_3 C12_3 1_555 1_555
C1_3 C2_3 1_555 1_555
C1_3 C10_3 1_555 1_555
C1_3 H1_3 1_555 1_555
C2_3 C3_3 1_555 1_555
C3_3 C4_3 1_555 1_555
C3_3 C11_3 1_555 1_555
C4_3 C5_3 1_555 1_555
C4_3 H4_3 1_555 1_555
C5_3 C6_3 1_555 1_555
C5_3 C10_3 1_555 1_555
C6_3 C7_3 1_555 1_555
C6_3 H6_3 1_555 1_555
C7_3 C8_3 1_555 1_555
C7_3 H7_3 1_555 1_555
C8_3 C9_3 1_555 1_555
C8_3 C14_3 1_555 1_555
C9_3 C10_3 1_555 1_555
C9_3 H9_3 1_555 1_555
C11_3 C12_3 1_555 1_555
C11_3 C13_4 1_555 1_555
C12_3 C13_3 1_555 1_555
C13_3 H13_3 1_555 1_555
C13_3 C11_4 1_555 1_555
C14_3 C15_3 1_555 1_555
C14_3 H14A_3 1_555 1_555
C14_3 H14B_3 1_555 1_555
C15_3 C16_3 1_555 1_555
C15_3 H15A_3 1_555 1_555
C15_3 H15B_3 1_555 1_555
C16_3 C17_3 1_555 1_555
C16_3 H16A_3 1_555 1_555
C16_3 H16B_3 1_555 1_555
C17_3 C18_3 1_555 1_555
C17_3 H17A_3 1_555 1_555
C17_3 H17B_3 1_555 1_555
C18_3 C19_3 1_555 1_555
C18_3 H18A_3 1_555 1_555
C18_3 H18B_3 1_555 1_555
C19_3 C20_3 1_555 1_555
C19_3 H19A_3 1_555 1_555
C19_3 H19B_3 1_555 1_555
C20_3 C21_3 1_555 1_555
C20_3 H20A_3 1_555 1_555
C20_3 H20B_3 1_555 1_555
C21_3 C22_3 1_555 1_555
C21_3 H21A_3 1_555 1_555
C21_3 H21B_3 1_555 1_555
C22_3 C23_3 1_555 1_555
C22_3 H22A_3 1_555 1_555
C22_3 H22B_3 1_555 1_555
C23_3 H23A_3 1_555 1_555
C23_3 H23B_3 1_555 1_555
C23_3 H23C_3 1_555 1_555
S1_4 C2_4 1_555 1_555
S1_4 C12_4 1_555 1_555
C1_4 C2_4 1_555 1_555
C1_4 C10_4 1_555 1_555
C1_4 H1_4 1_555 1_555
C2_4 C3_4 1_555 1_555
C3_4 C4_4 1_555 1_555
C3_4 C11_4 1_555 1_555
C4_4 C5_4 1_555 1_555
C4_4 H4_4 1_555 1_555
C5_4 C6_4 1_555 1_555
C5_4 C10_4 1_555 1_555
C6_4 C7_4 1_555 1_555
C6_4 H6_4 1_555 1_555
C7_4 C8_4 1_555 1_555
C7_4 H7_4 1_555 1_555
C8_4 C9_4 1_555 1_555
C8_4 C14_4 1_555 1_555
C9_4 C10_4 1_555 1_555
C9_4 H9_4 1_555 1_555
C11_4 C12_4 1_555 1_555
C12_4 C13_4 1_555 1_555
C13_4 H13_4 1_555 1_555
C14_4 C15_4 1_555 1_555
C14_4 H14A_4 1_555 1_555
C14_4 H14B_4 1_555 1_555
C15_4 C16_4 1_555 1_555
C15_4 H15A_4 1_555 1_555
C15_4 H15B_4 1_555 1_555
C16_4 C17_4 1_555 1_555
C16_4 H16A_4 1_555 1_555
C16_4 H16B_4 1_555 1_555
C17_4 C18_4 1_555 1_555
C17_4 H17A_4 1_555 1_555
C17_4 H17B_4 1_555 1_555
C18_4 C19_4 1_555 1_555
C18_4 H18A_4 1_555 1_555
C18_4 H18B_4 1_555 1_555
C19_4 C20_4 1_555 1_555
C19_4 H19A_4 1_555 1_555
C19_4 H19B_4 1_555 1_555
C20_4 C21_4 1_555 1_555
C20_4 H20A_4 1_555 1_555
C20_4 H20B_4 1_555 1_555
C21_4 C22_4 1_555 1_555
C21_4 H21A_4 1_555 1_555
C21_4 H21B_4 1_555 1_555
C22_4 C23_4 1_555 1_555
C22_4 H22A_4 1_555 1_555
C22_4 H22B_4 1_555 1_555
C23_4 H23A_4 1_555 1_555
C23_4 H23B_4 1_555 1_555
C23_4 H23C_4 1_555 1_555
S1_5 C2_5 1_555 1_555
S1_5 C12_5 1_555 1_555
C1_5 C2_5 1_555 1_555
C1_5 C10_5 1_555 1_555
C1_5 H1_5 1_555 1_555
C2_5 C3_5 1_555 1_555
C3_5 C4_5 1_555 1_555
C3_5 C11_5 1_555 1_555
C4_5 C5_5 1_555 1_555
C4_5 H4_5 1_555 1_555
C5_5 C6_5 1_555 1_555
C5_5 C10_5 1_555 1_555
C6_5 C7_5 1_555 1_555
C6_5 H6_5 1_555 1_555
C7_5 C8_5 1_555 1_555
C7_5 H7_5 1_555 1_555
C8_5 C9_5 1_555 1_555
C8_5 C14_5 1_555 1_555
C9_5 C10_5 1_555 1_555
C9_5 H9_5 1_555 1_555
C11_5 C12_5 1_555 1_555
C11_5 C13_6 1_555 1_555
C12_5 C13_5 1_555 1_555
C13_5 H13_5 1_555 1_555
C13_5 C11_6 1_555 1_555
C14_5 C15_5 1_555 1_555
C14_5 H14A_5 1_555 1_555
C14_5 H14B_5 1_555 1_555
C15_5 C16_5 1_555 1_555
C15_5 H15A_5 1_555 1_555
C15_5 H15B_5 1_555 1_555
C16_5 C17_5 1_555 1_555
C16_5 H16A_5 1_555 1_555
C16_5 H16B_5 1_555 1_555
C17_5 C18_5 1_555 1_555
C17_5 H17A_5 1_555 1_555
C17_5 H17B_5 1_555 1_555
C18_5 C19_5 1_555 1_555
C18_5 H18A_5 1_555 1_555
C18_5 H18B_5 1_555 1_555
C19_5 C20_5 1_555 1_555
C19_5 H19A_5 1_555 1_555
C19_5 H19B_5 1_555 1_555
C20_5 C21_5 1_555 1_555
C20_5 H20A_5 1_555 1_555
C20_5 H20B_5 1_555 1_555
C21_5 C22_5 1_555 1_555
C21_5 H21A_5 1_555 1_555
C21_5 H21B_5 1_555 1_555
C22_5 C23_5 1_555 1_555
C22_5 H22A_5 1_555 1_555
C22_5 H22B_5 1_555 1_555
C23_5 H23A_5 1_555 1_555
C23_5 H23B_5 1_555 1_555
C23_5 H23C_5 1_555 1_555
S1_6 C2_6 1_555 1_555
S1_6 C12_6 1_555 1_555
C1_6 C2_6 1_555 1_555
C1_6 C10_6 1_555 1_555
C1_6 H1_6 1_555 1_555
C2_6 C3_6 1_555 1_555
C3_6 C4_6 1_555 1_555
C3_6 C11_6 1_555 1_555
C4_6 C5_6 1_555 1_555
C4_6 H4_6 1_555 1_555
C5_6 C6_6 1_555 1_555
C5_6 C10_6 1_555 1_555
C6_6 C7_6 1_555 1_555
C6_6 H6_6 1_555 1_555
C7_6 C8_6 1_555 1_555
C7_6 H7_6 1_555 1_555
C8_6 C9_6 1_555 1_555
C8_6 C14_6 1_555 1_555
C9_6 C10_6 1_555 1_555
C9_6 H9_6 1_555 1_555
C11_6 C12_6 1_555 1_555
C12_6 C13_6 1_555 1_555
C13_6 H13_6 1_555 1_555
C14_6 C15_6 1_555 1_555
C14_6 H14A_6 1_555 1_555
C14_6 H14B_6 1_555 1_555
C15_6 C16_6 1_555 1_555
C15_6 H15A_6 1_555 1_555
C15_6 H15B_6 1_555 1_555
C16_6 C17_6 1_555 1_555
C16_6 H16A_6 1_555 1_555
C16_6 H16B_6 1_555 1_555
C17_6 C18_6 1_555 1_555
C17_6 H17A_6 1_555 1_555
C17_6 H17B_6 1_555 1_555
C18_6 C19_6 1_555 1_555
C18_6 H18A_6 1_555 1_555
C18_6 H18B_6 1_555 1_555
C19_6 C20_6 1_555 1_555
C19_6 H19A_6 1_555 1_555
C19_6 H19B_6 1_555 1_555
C20_6 C21_6 1_555 1_555
C20_6 H20A_6 1_555 1_555
C20_6 H20B_6 1_555 1_555
C21_6 C22_6 1_555 1_555
C21_6 H21A_6 1_555 1_555
C21_6 H21B_6 1_555 1_555
C22_6 C23_6 1_555 1_555
C22_6 H22A_6 1_555 1_555
C22_6 H22B_6 1_555 1_555
C23_6 H23A_6 1_555 1_555
C23_6 H23B_6 1_555 1_555
C23_6 H23C_6 1_555 1_555
S1_7 C2_7 1_555 1_555
S1_7 C12_7 1_555 1_555
C1_7 C2_7 1_555 1_555
C1_7 C10_7 1_555 1_555
C1_7 H1_7 1_555 1_555
C2_7 C3_7 1_555 1_555
C3_7 C4_7 1_555 1_555
C3_7 C11_7 1_555 1_555
C4_7 C5_7 1_555 1_555
C4_7 H4_7 1_555 1_555
C5_7 C6_7 1_555 1_555
C5_7 C10_7 1_555 1_555
C6_7 C7_7 1_555 1_555
C6_7 H6_7 1_555 1_555
C7_7 C8_7 1_555 1_555
C7_7 H7_7 1_555 1_555
C8_7 C9_7 1_555 1_555
C8_7 C14_7 1_555 1_555
C9_7 C10_7 1_555 1_555
C9_7 H9_7 1_555 1_555
C11_7 C12_7 1_555 1_555
C11_7 C13_8 1_555 1_555
C12_7 C13_7 1_555 1_555
C13_7 H13_7 1_555 1_555
C13_7 C11_8 1_555 1_555
C14_7 C15_7 1_555 1_555
C14_7 H14A_7 1_555 1_555
C14_7 H14B_7 1_555 1_555
C15_7 C16_7 1_555 1_555
C15_7 H15A_7 1_555 1_555
C15_7 H15B_7 1_555 1_555
C16_7 C17_7 1_555 1_555
C16_7 H16A_7 1_555 1_555
C16_7 H16B_7 1_555 1_555
C17_7 C18_7 1_555 1_555
C17_7 H17A_7 1_555 1_555
C17_7 H17B_7 1_555 1_555
C18_7 C19_7 1_555 1_555
C18_7 H18A_7 1_555 1_555
C18_7 H18B_7 1_555 1_555
C19_7 C20_7 1_555 1_555
C19_7 H19A_7 1_555 1_555
C19_7 H19B_7 1_555 1_555
C20_7 C21_7 1_555 1_555
C20_7 H20A_7 1_555 1_555
C20_7 H20B_7 1_555 1_555
C21_7 C22_7 1_555 1_555
C21_7 H21A_7 1_555 1_555
C21_7 H21B_7 1_555 1_555
C22_7 C23_7 1_555 1_555
C22_7 H22A_7 1_555 1_555
C22_7 H22B_7 1_555 1_555
C23_7 H23A_7 1_555 1_555
C23_7 H23B_7 1_555 1_555
C23_7 H23C_7 1_555 1_555
S1_8 C2_8 1_555 1_555
S1_8 C12_8 1_555 1_555
C1_8 C2_8 1_555 1_555
C1_8 C10_8 1_555 1_555
C1_8 H1_8 1_555 1_555
C2_8 C3_8 1_555 1_555
C3_8 C4_8 1_555 1_555
C3_8 C11_8 1_555 1_555
C4_8 C5_8 1_555 1_555
C4_8 H4_8 1_555 1_555
C5_8 C6_8 1_555 1_555
C5_8 C10_8 1_555 1_555
C6_8 C7_8 1_555 1_555
C6_8 H6_8 1_555 1_555
C7_8 C8_8 1_555 1_555
C7_8 H7_8 1_555 1_555
C8_8 C9_8 1_555 1_555
C8_8 C14_8 1_555 1_555
C9_8 C10_8 1_555 1_555
C9_8 H9_8 1_555 1_555
C11_8 C12_8 1_555 1_555
C12_8 C13_8 1_555 1_555
C13_8 H13_8 1_555 1_555
C14_8 C15_8 1_555 1_555
C14_8 H14A_8 1_555 1_555
C14_8 H14B_8 1_555 1_555
C15_8 C16_8 1_555 1_555
C15_8 H15A_8 1_555 1_555
C15_8 H15B_8 1_555 1_555
C16_8 C17_8 1_555 1_555
C16_8 H16A_8 1_555 1_555
C16_8 H16B_8 1_555 1_555
C17_8 C18_8 1_555 1_555
C17_8 H17A_8 1_555 1_555
C17_8 H17B_8 1_555 1_555
C18_8 C19_8 1_555 1_555
C18_8 H18A_8 1_555 1_555
C18_8 H18B_8 1_555 1_555
C19_8 C20_8 1_555 1_555
C19_8 H19A_8 1_555 1_555
C19_8 H19B_8 1_555 1_555
C20_8 C21_8 1_555 1_555
C20_8 H20A_8 1_555 1_555
C20_8 H20B_8 1_555 1_555
C21_8 C22_8 1_555 1_555
C21_8 H21A_8 1_555 1_555
C21_8 H21B_8 1_555 1_555
C22_8 C23_8 1_555 1_555
C22_8 H22A_8 1_555 1_555
C22_8 H22B_8 1_555 1_555
C23_8 H23A_8 1_555 1_555
C23_8 H23B_8 1_555 1_555
C23_8 H23C_8 1_555 1_555
S1_9 C2_9 1_555 1_555
S1_9 C12_9 1_555 1_555
C1_9 C2_9 1_555 1_555
C1_9 C10_9 1_555 1_555
C1_9 H1_9 1_555 1_555
C2_9 C3_9 1_555 1_555
C3_9 C4_9 1_555 1_555
C3_9 C11_9 1_555 1_555
C4_9 C5_9 1_555 1_555
C4_9 H4_9 1_555 1_555
C5_9 C6_9 1_555 1_555
C5_9 C10_9 1_555 1_555
C6_9 C7_9 1_555 1_555
C6_9 H6_9 1_555 1_555
C7_9 C8_9 1_555 1_555
C7_9 H7_9 1_555 1_555
C8_9 C9_9 1_555 1_555
C8_9 C14_9 1_555 1_555
C9_9 C10_9 1_555 1_555
C9_9 H9_9 1_555 1_555
C11_9 C12_9 1_555 1_555
C11_9 C13_10 1_555 1_555
C12_9 C13_9 1_555 1_555
C13_9 H13_9 1_555 1_555
C13_9 C11_10 1_555 1_555
C14_9 C15_9 1_555 1_555
C14_9 H14A_9 1_555 1_555
C14_9 H14B_9 1_555 1_555
C15_9 C16_9 1_555 1_555
C15_9 H15A_9 1_555 1_555
C15_9 H15B_9 1_555 1_555
C16_9 C17_9 1_555 1_555
C16_9 H16A_9 1_555 1_555
C16_9 H16B_9 1_555 1_555
C17_9 C18_9 1_555 1_555
C17_9 H17A_9 1_555 1_555
C17_9 H17B_9 1_555 1_555
C18_9 C19_9 1_555 1_555
C18_9 H18A_9 1_555 1_555
C18_9 H18B_9 1_555 1_555
C19_9 C20_9 1_555 1_555
C19_9 H19A_9 1_555 1_555
C19_9 H19B_9 1_555 1_555
C20_9 C21_9 1_555 1_555
C20_9 H20A_9 1_555 1_555
C20_9 H20B_9 1_555 1_555
C21_9 C22_9 1_555 1_555
C21_9 H21A_9 1_555 1_555
C21_9 H21B_9 1_555 1_555
C22_9 C23_9 1_555 1_555
C22_9 H22A_9 1_555 1_555
C22_9 H22B_9 1_555 1_555
C23_9 H23A_9 1_555 1_555
C23_9 H23B_9 1_555 1_555
C23_9 H23C_9 1_555 1_555
S1_10 C2_10 1_555 1_555
S1_10 C12_10 1_555 1_555
C1_10 C2_10 1_555 1_555
C1_10 C10_10 1_555 1_555
C1_10 H1_10 1_555 1_555
C2_10 C3_10 1_555 1_555
C3_10 C4_10 1_555 1_555
C3_10 C11_10 1_555 1_555
C4_10 C5_10 1_555 1_555
C4_10 H4_10 1_555 1_555
C5_10 C6_10 1_555 1_555
C5_10 C10_10 1_555 1_555
C6_10 C7_10 1_555 1_555
C6_10 H6_10 1_555 1_555
C7_10 C8_10 1_555 1_555
C7_10 H7_10 1_555 1_555
C8_10 C9_10 1_555 1_555
C8_10 C14_10 1_555 1_555
C9_10 C10_10 1_555 1_555
C9_10 H9_10 1_555 1_555
C11_10 C12_10 1_555 1_555
C12_10 C13_10 1_555 1_555
C13_10 H13_10 1_555 1_555
C14_10 C15_10 1_555 1_555
C14_10 H14A_10 1_555 1_555
C14_10 H14B_10 1_555 1_555
C15_10 C16_10 1_555 1_555
C15_10 H15A_10 1_555 1_555
C15_10 H15B_10 1_555 1_555
C16_10 C17_10 1_555 1_555
C16_10 H16A_10 1_555 1_555
C16_10 H16B_10 1_555 1_555
C17_10 C18_10 1_555 1_555
C17_10 H17A_10 1_555 1_555
C17_10 H17B_10 1_555 1_555
C18_10 C19_10 1_555 1_555
C18_10 H18A_10 1_555 1_555
C18_10 H18B_10 1_555 1_555
C19_10 C20_10 1_555 1_555
C19_10 H19A_10 1_555 1_555
C19_10 H19B_10 1_555 1_555
C20_10 C21_10 1_555 1_555
C20_10 H20A_10 1_555 1_555
C20_10 H20B_10 1_555 1_555
C21_10 C22_10 1_555 1_555
C21_10 H21A_10 1_555 1_555
C21_10 H21B_10 1_555 1_555
C22_10 C23_10 1_555 1_555
C22_10 H22A_10 1_555 1_555
C22_10 H22B_10 1_555 1_555
C23_10 H23A_10 1_555 1_555
C23_10 H23B_10 1_555 1_555
C23_10 H23C_10 1_555 1_555

#END
