
#######################################################################
#
#                 Cambridge Crystallographic Data Centre
#                                CCDC 
#
#######################################################################
#
# If this CIF has been generated from an entry in the Cambridge 
# Structural Database, then it will include bibliographic, chemical, 
# crystal, experimental, refinement or atomic coordinate data resulting 
# from the CCDC's data processing and validation procedures.
#
#######################################################################

data_TM026_Okamoto_proc
_chemical_formula_moiety         'C1196 H1404 S52'
_cell_length_a                   1
_cell_length_b                   1
_cell_length_c                   1
_cell_angle_alpha                90
_cell_angle_beta                 90
_cell_angle_gamma                90
_cell_volume                     1
loop_
_atom_site_label
_atom_site_type_symbol
_atom_site_fract_x
_atom_site_fract_y
_atom_site_fract_z
S1 S -21.44011(4) -6.8339(2) -8.4215(2)
C1 C -24.0948(2) -7.0752(8) -7.7462(10)
C2 C -22.80688(19) -7.3089(7) -7.4418(10)
C3 C -22.3788(2) -7.8779(8) -6.2256(11)
C4 C -23.3590(2) -8.2796(7) -5.3071(10)
C5 C -24.7344(2) -8.0676(8) -5.5907(12)
C6 C -25.7759(2) -8.4416(7) -4.7106(10)
C7 C -27.0953(2) -8.1694(9) -4.9942(12)
C8 C -27.4651(2) -7.5618(8) -6.2146(13)
C9 C -26.4793(2) -7.1978(8) -7.0984(11)
C10 C -25.1144(2) -7.4554(9) -6.8374(13)
C11 C -20.94803(18) -7.8887(8) -6.0753(12)
C12 C -20.29422(19) -7.3012(8) -7.1955(10)
C13 C -18.94173(19) -7.1138(7) -7.2456(10)
C14 C -28.92006(19) -7.2418(8) -6.4640(11)
C15 C -29.51643(17) -7.8679(8) -7.6924(11)
C16 C -30.94060(18) -7.4454(8) -7.9869(12)
C17 C -31.55736(19) -8.0036(9) -9.2496(11)
C18 C -32.94512(19) -7.4878(9) -9.5502(13)
C19 C -33.5465(2) -8.0183(9) -10.8092(13)
C20 C -34.9428(2) -7.4592(9) -11.0793(13)
C21 C -35.5856(2) -8.0028(9) -12.3419(14)
C22 C -36.9817(2) -7.4523(11) -12.6151(14)
C23 C -37.63155(17) -7.9874(11) -13.8502(14)
H1 H -24.3214 -6.66057 -8.5596
H4 H -23.10476 -8.69000 -4.5004
H6 H -25.56192 -8.8865 -3.91091
H7 H -27.75994 -8.39106 -4.36706
H9 H -26.71649 -6.76497 -7.89784
H13 H -18.53676 -6.71478 -7.99465
H14A H -29.43870 -7.5325 -5.68498
H14B H -29.01542 -6.26910 -6.5349
H15A H -29.49456 -8.8425 -7.58861
H15B H -28.95639 -7.64005 -8.46333
H16A H -31.50214 -7.71052 -7.22901
H16B H -30.96478 -6.46727 -8.04103
H17A H -30.9724 -7.78740 -10.00571
H17B H -31.59544 -8.97984 -9.17432
H18A H -33.53324 -7.71862 -8.80073
H18B H -32.90985 -6.51052 -9.60823
H19A H -33.60103 -8.99534 -10.75075
H19B H -32.96255 -7.79480 -11.56234
H20A H -35.51996 -7.66889 -10.31580
H20B H -34.88355 -6.4838 -11.14921
H21A H -35.638 -8.97884 -12.27297
H21B H -35.00729 -7.79048 -13.10509
H22A H -37.55315 -7.65709 -11.84658
H22B H -36.92284 -6.47706 -12.68976
H23A H -37.67219 -8.95540 -13.80105
H23B H -37.11420 -7.72494 -14.62798
H23C H -38.52996 -7.62925 -13.92347
S1_2 S -17.68019(4) -8.5873(2) -3.8013(2)
C1_2 C -15.0255(2) -8.3460(8) -4.4766(10)
C2_2 C -16.31342(19) -8.1123(7) -4.7809(10)
C3_2 C -16.7415(2) -7.5433(8) -5.9971(11)
C4_2 C -15.7613(2) -7.1416(7) -6.9156(10)
C5_2 C -14.3859(2) -7.3536(8) -6.6321(12)
C6_2 C -13.3444(2) -6.9796(7) -7.5121(10)
C7_2 C -12.0250(2) -7.2518(9) -7.2285(12)
C8_2 C -11.6552(2) -7.8594(8) -6.0081(13)
C9_2 C -12.6410(2) -8.2234(8) -5.1244(11)
C10_2 C -14.0059(2) -7.9658(9) -5.3853(13)
C11_2 C -18.17227(18) -7.5325(8) -6.1474(12)
C12_2 C -18.82608(19) -8.1200(8) -5.0272(10)
C13_2 C -20.17857(19) -8.3074(7) -4.9771(10)
C14_2 C -10.20024(19) -8.1794(8) -5.7587(11)
C15_2 C -9.60387(17) -7.5533(8) -4.5304(11)
C16_2 C -8.17970(18) -7.9758(8) -4.2358(12)
C17_2 C -7.56294(19) -7.4176(9) -2.9732(11)
C18_2 C -6.17518(19) -7.9334(9) -2.6725(13)
C19_2 C -5.5738(2) -7.4029(9) -1.4136(13)
C20_2 C -4.1775(2) -7.9620(9) -1.1434(13)
C21_2 C -3.5347(2) -7.4184(9) 0.1192(14)
C22_2 C -2.1386(2) -7.9689(11) 0.3923(14)
C23_2 C -1.48875(17) -7.4338(11) 1.6275(14)
H1_2 H -14.7989 -8.76063 -3.6632
H4_2 H -16.01554 -6.73120 -7.7223
H6_2 H -13.55838 -6.5347 -8.31183
H7_2 H -11.36036 -7.03014 -7.85567
H9_2 H -12.40381 -8.65623 -4.32489
H13_2 H -20.58354 -8.70642 -4.22809
H14A_2 H -9.68161 -7.8887 -6.53776
H14B_2 H -10.10488 -9.15210 -5.6878
H15A_2 H -9.62574 -6.5787 -4.63413
H15B_2 H -10.16391 -7.78115 -3.75941
H16A_2 H -7.61817 -7.71068 -4.99372
H16B_2 H -8.15552 -8.95393 -4.18170
H17A_2 H -8.1479 -7.63380 -2.21702
H17B_2 H -7.52486 -6.44136 -3.04841
H18A_2 H -5.58706 -7.70258 -3.42200
H18B_2 H -6.21045 -8.91068 -2.61450
H19A_2 H -5.51927 -6.42586 -1.47198
H19B_2 H -6.15775 -7.62640 -0.66039
H20A_2 H -3.60034 -7.75231 -1.90693
H20B_2 H -4.23676 -8.9374 -1.07352
H21A_2 H -3.482 -6.44236 0.05024
H21B_2 H -4.11301 -7.63072 0.88236
H22A_2 H -1.56715 -7.76411 -0.37615
H22B_2 H -2.19746 -8.94414 0.46703
H23A_2 H -1.44811 -6.46580 1.57832
H23B_2 H -2.00610 -7.69626 2.40525
H23C_2 H -0.59034 -7.79195 1.70073
S1_3 S -21.87046(4) -6.8339(2) -2.3101(2)
C1_3 C -24.5252(2) -7.0752(8) -1.6348(10)
C2_3 C -23.23723(19) -7.3089(7) -1.3304(10)
C3_3 C -22.8091(2) -7.8779(8) -0.1143(11)
C4_3 C -23.7894(2) -8.2796(7) 0.8043(10)
C5_3 C -25.1647(2) -8.0676(8) 0.5207(12)
C6_3 C -26.2062(2) -8.4416(7) 1.4007(10)
C7_3 C -27.5256(2) -8.1694(9) 1.1172(12)
C8_3 C -27.8955(2) -7.5618(8) -0.1033(13)
C9_3 C -26.9097(2) -7.1978(8) -0.9870(11)
C10_3 C -25.5447(2) -7.4554(9) -0.7260(13)
C11_3 C -21.37838(18) -7.8887(8) 0.0361(12)
C12_3 C -20.72457(19) -7.3012(8) -1.0842(10)
C13_3 C -19.37208(19) -7.1138(7) -1.1343(10)
C14_3 C -29.35041(19) -7.2418(8) -0.3526(11)
C15_3 C -29.94678(17) -7.8679(8) -1.5810(11)
C16_3 C -31.37095(18) -7.4454(8) -1.8756(12)
C17_3 C -31.98771(19) -8.0036(9) -3.1382(11)
C18_3 C -33.37547(19) -7.4878(9) -3.4389(13)
C19_3 C -33.9769(2) -8.0183(9) -4.6978(13)
C20_3 C -35.3732(2) -7.4592(9) -4.9679(13)
C21_3 C -36.0159(2) -8.0028(9) -6.2305(14)
C22_3 C -37.4120(2) -7.4523(11) -6.5037(14)
C23_3 C -38.06190(17) -7.9874(11) -7.7388(14)
H1_3 H -24.7518 -6.66057 -2.4482
H4_3 H -23.53511 -8.69000 1.6110
H6_3 H -25.99227 -8.8865 2.20046
H7_3 H -28.19029 -8.39106 1.74431
H9_3 H -27.14684 -6.76497 -1.78647
H13_3 H -18.96711 -6.71478 -1.88328
H14A_3 H -29.86905 -7.5325 0.42639
H14B_3 H -29.44577 -6.26910 -0.4235
H15A_3 H -29.92491 -8.8425 -1.47724
H15B_3 H -29.38674 -7.64005 -2.35196
H16A_3 H -31.93249 -7.71052 -1.11765
H16B_3 H -31.39513 -6.46727 -1.92966
H17A_3 H -31.4027 -7.78740 -3.89435
H17B_3 H -32.02579 -8.97984 -3.06296
H18A_3 H -33.96359 -7.71862 -2.68937
H18B_3 H -33.34020 -6.51052 -3.49686
H19A_3 H -34.03138 -8.99534 -4.63938
H19B_3 H -33.39290 -7.79480 -5.45097
H20A_3 H -35.95031 -7.66889 -4.20444
H20B_3 H -35.31389 -6.4838 -5.03784
H21A_3 H -36.069 -8.97884 -6.16160
H21B_3 H -35.43764 -7.79048 -6.99373
H22A_3 H -37.98350 -7.65709 -5.73521
H22B_3 H -37.35319 -6.47706 -6.57840
H23A_3 H -38.10254 -8.95540 -7.68969
H23B_3 H -37.54455 -7.72494 -8.51662
H23C_3 H -38.96031 -7.62925 -7.81210
S1_4 S -18.11054(4) -8.5873(2) 2.3101(2)
C1_4 C -15.4558(2) -8.3460(8) 1.6348(10)
C2_4 C -16.74377(19) -8.1123(7) 1.3304(10)
C3_4 C -17.1719(2) -7.5433(8) 0.1143(11)
C4_4 C -16.1916(2) -7.1416(7) -0.8043(10)
C5_4 C -14.8163(2) -7.3536(8) -0.5207(12)
C6_4 C -13.7748(2) -6.9796(7) -1.4007(10)
C7_4 C -12.4554(2) -7.2518(9) -1.1172(12)
C8_4 C -12.0855(2) -7.8594(8) 0.1033(13)
C9_4 C -13.0713(2) -8.2234(8) 0.9870(11)
C10_4 C -14.4363(2) -7.9658(9) 0.7260(13)
C11_4 C -18.60262(18) -7.5325(8) -0.0361(12)
C12_4 C -19.25643(19) -8.1200(8) 1.0842(10)
C13_4 C -20.60892(19) -8.3074(7) 1.1343(10)
C14_4 C -10.63059(19) -8.1794(8) 0.3526(11)
C15_4 C -10.03422(17) -7.5533(8) 1.5810(11)
C16_4 C -8.61005(18) -7.9758(8) 1.8756(12)
C17_4 C -7.99329(19) -7.4176(9) 3.1382(11)
C18_4 C -6.60553(19) -7.9334(9) 3.4389(13)
C19_4 C -6.0041(2) -7.4029(9) 4.6978(13)
C20_4 C -4.6078(2) -7.9620(9) 4.9679(13)
C21_4 C -3.9651(2) -7.4184(9) 6.2305(14)
C22_4 C -2.5690(2) -7.9689(11) 6.5037(14)
C23_4 C -1.91910(17) -7.4338(11) 7.7388(14)
H1_4 H -15.2292 -8.76063 2.4482
H4_4 H -16.44589 -6.73120 -1.6110
H6_4 H -13.98873 -6.5347 -2.20046
H7_4 H -11.79071 -7.03014 -1.74431
H9_4 H -12.83416 -8.65623 1.78647
H13_4 H -21.01389 -8.70642 1.88328
H14A_4 H -10.11195 -7.8887 -0.42639
H14B_4 H -10.53523 -9.15210 0.4235
H15A_4 H -10.05609 -6.5787 1.47724
H15B_4 H -10.59426 -7.78115 2.35196
H16A_4 H -8.04851 -7.71068 1.11765
H16B_4 H -8.58587 -8.95393 1.92966
H17A_4 H -8.5783 -7.63380 3.89435
H17B_4 H -7.95521 -6.44136 3.06296
H18A_4 H -6.01741 -7.70258 2.68937
H18B_4 H -6.64080 -8.91068 3.49686
H19A_4 H -5.94962 -6.42586 4.63938
H19B_4 H -6.58810 -7.62640 5.45097
H20A_4 H -4.03069 -7.75231 4.20444
H20B_4 H -4.66711 -8.9374 5.03784
H21A_4 H -3.912 -6.44236 6.16160
H21B_4 H -4.54336 -7.63072 6.99373
H22A_4 H -1.99750 -7.76411 5.73521
H22B_4 H -2.62781 -8.94414 6.57840
H23A_4 H -1.87846 -6.46580 7.68969
H23B_4 H -2.43645 -7.69626 8.51662
H23C_4 H -1.02069 -7.79195 7.81210
S1_5 S -22.30081(4) -6.8339(2) 3.8013(2)
C1_5 C -24.9555(2) -7.0752(8) 4.4766(10)
C2_5 C -23.66758(19) -7.3089(7) 4.7809(10)
C3_5 C -23.2395(2) -7.8779(8) 5.9971(11)
C4_5 C -24.2197(2) -8.2796(7) 6.9156(10)
C5_5 C -25.5951(2) -8.0676(8) 6.6321(12)
C6_5 C -26.6366(2) -8.4416(7) 7.5121(10)
C7_5 C -27.9560(2) -8.1694(9) 7.2285(12)
C8_5 C -28.3258(2) -7.5618(8) 6.0081(13)
C9_5 C -27.3400(2) -7.1978(8) 5.1244(11)
C10_5 C -25.9751(2) -7.4554(9) 5.3853(13)
C11_5 C -21.80873(18) -7.8887(8) 6.1474(12)
C12_5 C -21.15492(19) -7.3012(8) 5.0272(10)
C13_5 C -19.80243(19) -7.1138(7) 4.9771(10)
C14_5 C -29.78076(19) -7.2418(8) 5.7587(11)
C15_5 C -30.37713(17) -7.8679(8) 4.5304(11)
C16_5 C -31.80130(18) -7.4454(8) 4.2358(12)
C17_5 C -32.41806(19) -8.0036(9) 2.9732(11)
C18_5 C -33.80582(19) -7.4878(9) 2.6725(13)
C19_5 C -34.4072(2) -8.0183(9) 1.4136(13)
C20_5 C -35.8035(2) -7.4592(9) 1.1434(13)
C21_5 C -36.4463(2) -8.0028(9) -0.1192(14)
C22_5 C -37.8424(2) -7.4523(11) -0.3923(14)
C23_5 C -38.49225(17) -7.9874(11) -1.6275(14)
H1_5 H -25.1821 -6.66057 3.6632
H4_5 H -23.96546 -8.69000 7.7223
H6_5 H -26.42262 -8.8865 8.31183
H7_5 H -28.62064 -8.39106 7.85567
H9_5 H -27.57719 -6.76497 4.32489
H13_5 H -19.39746 -6.71478 4.22809
H14A_5 H -30.29939 -7.5325 6.53776
H14B_5 H -29.87612 -6.26910 5.6878
H15A_5 H -30.35526 -8.8425 4.63413
H15B_5 H -29.81709 -7.64005 3.75941
H16A_5 H -32.36283 -7.71052 4.99372
H16B_5 H -31.82548 -6.46727 4.18170
H17A_5 H -31.8331 -7.78740 2.21702
H17B_5 H -32.45614 -8.97984 3.04841
H18A_5 H -34.39394 -7.71862 3.42200
H18B_5 H -33.77055 -6.51052 2.61450
H19A_5 H -34.46173 -8.99534 1.47198
H19B_5 H -33.82325 -7.79480 0.66039
H20A_5 H -36.38066 -7.66889 1.90693
H20B_5 H -35.74424 -6.4838 1.07352
H21A_5 H -36.499 -8.97884 -0.05024
H21B_5 H -35.86799 -7.79048 -0.88236
H22A_5 H -38.41385 -7.65709 0.37615
H22B_5 H -37.78354 -6.47706 -0.46703
H23A_5 H -38.53289 -8.95540 -1.57832
H23B_5 H -37.97490 -7.72494 -2.40525
H23C_5 H -39.39066 -7.62925 -1.70073
S1_6 S -18.54089(4) -8.5873(2) 8.4215(2)
C1_6 C -15.8862(2) -8.3460(8) 7.7462(10)
C2_6 C -17.17412(19) -8.1123(7) 7.4418(10)
C3_6 C -17.6022(2) -7.5433(8) 6.2256(11)
C4_6 C -16.6220(2) -7.1416(7) 5.3071(10)
C5_6 C -15.2466(2) -7.3536(8) 5.5907(12)
C6_6 C -14.2051(2) -6.9796(7) 4.7106(10)
C7_6 C -12.8857(2) -7.2518(9) 4.9942(12)
C8_6 C -12.5159(2) -7.8594(8) 6.2146(13)
C9_6 C -13.5017(2) -8.2234(8) 7.0984(11)
C10_6 C -14.8666(2) -7.9658(9) 6.8374(13)
C11_6 C -19.03297(18) -7.5325(8) 6.0753(12)
C12_6 C -19.68678(19) -8.1200(8) 7.1955(10)
C13_6 C -21.03927(19) -8.3074(7) 7.2456(10)
C14_6 C -11.06094(19) -8.1794(8) 6.4640(11)
C15_6 C -10.46457(17) -7.5533(8) 7.6924(11)
C16_6 C -9.04040(18) -7.9758(8) 7.9869(12)
C17_6 C -8.42364(19) -7.4176(9) 9.2496(11)
C18_6 C -7.03588(19) -7.9334(9) 9.5502(13)
C19_6 C -6.4345(2) -7.4029(9) 10.8092(13)
C20_6 C -5.0382(2) -7.9620(9) 11.0793(13)
C21_6 C -4.3954(2) -7.4184(9) 12.3419(14)
C22_6 C -2.9993(2) -7.9689(11) 12.6151(14)
C23_6 C -2.34945(17) -7.4338(11) 13.8502(14)
H1_6 H -15.6596 -8.76063 8.5596
H4_6 H -16.87624 -6.73120 4.5004
H6_6 H -14.41908 -6.5347 3.91091
H7_6 H -12.22106 -7.03014 4.36706
H9_6 H -13.26451 -8.65623 7.89784
H13_6 H -21.44424 -8.70642 7.99465
H14A_6 H -10.54230 -7.8887 5.68498
H14B_6 H -10.96558 -9.15210 6.5349
H15A_6 H -10.48644 -6.5787 7.58861
H15B_6 H -11.02461 -7.78115 8.46333
H16A_6 H -8.47886 -7.71068 7.22901
H16B_6 H -9.01622 -8.95393 8.04103
H17A_6 H -9.0086 -7.63380 10.00571
H17B_6 H -8.38556 -6.44136 9.17432
H18A_6 H -6.44776 -7.70258 8.80073
H18B_6 H -7.07115 -8.91068 9.60823
H19A_6 H -6.37997 -6.42586 10.75075
H19B_6 H -7.01845 -7.62640 11.56234
H20A_6 H -4.46104 -7.75231 10.31580
H20B_6 H -5.09745 -8.9374 11.14921
H21A_6 H -4.343 -6.44236 12.27297
H21B_6 H -4.97371 -7.63072 13.10509
H22A_6 H -2.42785 -7.76411 11.84658
H22B_6 H -3.05816 -8.94414 12.68976
H23A_6 H -2.30881 -6.46580 13.80105
H23B_6 H -2.86680 -7.69626 14.62798
H23C_6 H -1.45104 -7.79195 13.92347
S1_7 S -21.44011(4) 0.8767(2) -8.4215(2)
C1_7 C -24.0948(2) 0.6354(8) -7.7462(10)
C2_7 C -22.80688(19) 0.4017(7) -7.4418(10)
C3_7 C -22.3788(2) -0.1673(8) -6.2256(11)
C4_7 C -23.3590(2) -0.5690(7) -5.3071(10)
C5_7 C -24.7344(2) -0.3570(8) -5.5907(12)
C6_7 C -25.7759(2) -0.7310(7) -4.7106(10)
C7_7 C -27.0953(2) -0.4588(9) -4.9942(12)
C8_7 C -27.4651(2) 0.1488(8) -6.2146(13)
C9_7 C -26.4793(2) 0.5128(8) -7.0984(11)
C10_7 C -25.1144(2) 0.2552(9) -6.8374(13)
C11_7 C -20.94803(18) -0.1781(8) -6.0753(12)
C12_7 C -20.29422(19) 0.4094(8) -7.1955(10)
C13_7 C -18.94173(19) 0.5968(7) -7.2456(10)
C14_7 C -28.92006(19) 0.4688(8) -6.4640(11)
C15_7 C -29.51643(17) -0.1573(8) -7.6924(11)
C16_7 C -30.94060(18) 0.2652(8) -7.9869(12)
C17_7 C -31.55736(19) -0.2930(9) -9.2496(11)
C18_7 C -32.94512(19) 0.2228(9) -9.5502(13)
C19_7 C -33.5465(2) -0.3077(9) -10.8092(13)
C20_7 C -34.9428(2) 0.2514(9) -11.0793(13)
C21_7 C -35.5856(2) -0.2922(9) -12.3419(14)
C22_7 C -36.9817(2) 0.2583(11) -12.6151(14)
C23_7 C -37.63155(17) -0.2768(11) -13.8502(14)
H1_7 H -24.3214 1.05003 -8.5596
H4_7 H -23.10476 -0.97940 -4.5004
H6_7 H -25.56192 -1.1759 -3.91091
H7_7 H -27.75994 -0.68046 -4.36706
H9_7 H -26.71649 0.94563 -7.89784
H13_7 H -18.53676 0.99582 -7.99465
H14A_7 H -29.43870 0.1781 -5.68498
H14B_7 H -29.01542 1.44150 -6.5349
H15A_7 H -29.49456 -1.1319 -7.58861
H15B_7 H -28.95639 0.07055 -8.46333
H16A_7 H -31.50214 0.00008 -7.22901
H16B_7 H -30.96478 1.24333 -8.04103
H17A_7 H -30.9724 -0.07680 -10.00571
H17B_7 H -31.59544 -1.26924 -9.17432
H18A_7 H -33.53324 -0.00802 -8.80073
H18B_7 H -32.90985 1.20008 -9.60823
H19A_7 H -33.60103 -1.28474 -10.75075
H19B_7 H -32.96255 -0.08420 -11.56234
H20A_7 H -35.51996 0.04171 -10.31580
H20B_7 H -34.88355 1.2268 -11.14921
H21A_7 H -35.638 -1.26824 -12.27297
H21B_7 H -35.00729 -0.07988 -13.10509
H22A_7 H -37.55315 0.05351 -11.84658
H22B_7 H -36.92284 1.23354 -12.68976
H23A_7 H -37.67219 -1.24480 -13.80105
H23B_7 H -37.11420 -0.01434 -14.62798
H23C_7 H -38.52996 0.08135 -13.92347
S1_8 S -17.68019(4) -0.8767(2) -3.8013(2)
C1_8 C -15.0255(2) -0.6354(8) -4.4766(10)
C2_8 C -16.31342(19) -0.4017(7) -4.7809(10)
C3_8 C -16.7415(2) 0.1673(8) -5.9971(11)
C4_8 C -15.7613(2) 0.5690(7) -6.9156(10)
C5_8 C -14.3859(2) 0.3570(8) -6.6321(12)
C6_8 C -13.3444(2) 0.7310(7) -7.5121(10)
C7_8 C -12.0250(2) 0.4588(9) -7.2285(12)
C8_8 C -11.6552(2) -0.1488(8) -6.0081(13)
C9_8 C -12.6410(2) -0.5128(8) -5.1244(11)
C10_8 C -14.0059(2) -0.2552(9) -5.3853(13)
C11_8 C -18.17227(18) 0.1781(8) -6.1474(12)
C12_8 C -18.82608(19) -0.4094(8) -5.0272(10)
C13_8 C -20.17857(19) -0.5968(7) -4.9771(10)
C14_8 C -10.20024(19) -0.4688(8) -5.7587(11)
C15_8 C -9.60387(17) 0.1573(8) -4.5304(11)
C16_8 C -8.17970(18) -0.2652(8) -4.2358(12)
C17_8 C -7.56294(19) 0.2930(9) -2.9732(11)
C18_8 C -6.17518(19) -0.2228(9) -2.6725(13)
C19_8 C -5.5738(2) 0.3077(9) -1.4136(13)
C20_8 C -4.1775(2) -0.2514(9) -1.1434(13)
C21_8 C -3.5347(2) 0.2922(9) 0.1192(14)
C22_8 C -2.1386(2) -0.2583(11) 0.3923(14)
C23_8 C -1.48875(17) 0.2768(11) 1.6275(14)
H1_8 H -14.7989 -1.05003 -3.6632
H4_8 H -16.01554 0.97940 -7.7223
H6_8 H -13.55838 1.1759 -8.31183
H7_8 H -11.36036 0.68046 -7.85567
H9_8 H -12.40381 -0.94563 -4.32489
H13_8 H -20.58354 -0.99582 -4.22809
H14A_8 H -9.68161 -0.1781 -6.53776
H14B_8 H -10.10488 -1.44150 -5.6878
H15A_8 H -9.62574 1.1319 -4.63413
H15B_8 H -10.16391 -0.07055 -3.75941
H16A_8 H -7.61817 -0.00008 -4.99372
H16B_8 H -8.15552 -1.24333 -4.18170
H17A_8 H -8.1479 0.07680 -2.21702
H17B_8 H -7.52486 1.26924 -3.04841
H18A_8 H -5.58706 0.00802 -3.42200
H18B_8 H -6.21045 -1.20008 -2.61450
H19A_8 H -5.51927 1.28474 -1.47198
H19B_8 H -6.15775 0.08420 -0.66039
H20A_8 H -3.60034 -0.04171 -1.90693
H20B_8 H -4.23676 -1.2268 -1.07352
H21A_8 H -3.482 1.26824 0.05024
H21B_8 H -4.11301 0.07988 0.88236
H22A_8 H -1.56715 -0.05351 -0.37615
H22B_8 H -2.19746 -1.23354 0.46703
H23A_8 H -1.44811 1.24480 1.57832
H23B_8 H -2.00610 0.01434 2.40525
H23C_8 H -0.59034 -0.08135 1.70073
S1_9 S -21.87046(4) 0.8767(2) -2.3101(2)
C1_9 C -24.5252(2) 0.6354(8) -1.6348(10)
C2_9 C -23.23723(19) 0.4017(7) -1.3304(10)
C3_9 C -22.8091(2) -0.1673(8) -0.1143(11)
C4_9 C -23.7894(2) -0.5690(7) 0.8043(10)
C5_9 C -25.1647(2) -0.3570(8) 0.5207(12)
C6_9 C -26.2062(2) -0.7310(7) 1.4007(10)
C7_9 C -27.5256(2) -0.4588(9) 1.1172(12)
C8_9 C -27.8955(2) 0.1488(8) -0.1033(13)
C9_9 C -26.9097(2) 0.5128(8) -0.9870(11)
C10_9 C -25.5447(2) 0.2552(9) -0.7260(13)
C11_9 C -21.37838(18) -0.1781(8) 0.0361(12)
C12_9 C -20.72457(19) 0.4094(8) -1.0842(10)
C13_9 C -19.37208(19) 0.5968(7) -1.1343(10)
C14_9 C -29.35041(19) 0.4688(8) -0.3526(11)
C15_9 C -29.94678(17) -0.1573(8) -1.5810(11)
C16_9 C -31.37095(18) 0.2652(8) -1.8756(12)
C17_9 C -31.98771(19) -0.2930(9) -3.1382(11)
C18_9 C -33.37547(19) 0.2228(9) -3.4389(13)
C19_9 C -33.9769(2) -0.3077(9) -4.6978(13)
C20_9 C -35.3732(2) 0.2514(9) -4.9679(13)
C21_9 C -36.0159(2) -0.2922(9) -6.2305(14)
C22_9 C -37.4120(2) 0.2583(11) -6.5037(14)
C23_9 C -38.06190(17) -0.2768(11) -7.7388(14)
H1_9 H -24.7518 1.05003 -2.4482
H4_9 H -23.53511 -0.97940 1.6110
H6_9 H -25.99227 -1.1759 2.20046
H7_9 H -28.19029 -0.68046 1.74431
H9_9 H -27.14684 0.94563 -1.78647
H13_9 H -18.96711 0.99582 -1.88328
H14A_9 H -29.86905 0.1781 0.42639
H14B_9 H -29.44577 1.44150 -0.4235
H15A_9 H -29.92491 -1.1319 -1.47724
H15B_9 H -29.38674 0.07055 -2.35196
H16A_9 H -31.93249 0.00008 -1.11765
H16B_9 H -31.39513 1.24333 -1.92966
H17A_9 H -31.4027 -0.07680 -3.89435
H17B_9 H -32.02579 -1.26924 -3.06296
H18A_9 H -33.96359 -0.00802 -2.68937
H18B_9 H -33.34020 1.20008 -3.49686
H19A_9 H -34.03138 -1.28474 -4.63938
H19B_9 H -33.39290 -0.08420 -5.45097
H20A_9 H -35.95031 0.04171 -4.20444
H20B_9 H -35.31389 1.2268 -5.03784
H21A_9 H -36.069 -1.26824 -6.16160
H21B_9 H -35.43764 -0.07988 -6.99373
H22A_9 H -37.98350 0.05351 -5.73521
H22B_9 H -37.35319 1.23354 -6.57840
H23A_9 H -38.10254 -1.24480 -7.68969
H23B_9 H -37.54455 -0.01434 -8.51662
H23C_9 H -38.96031 0.08135 -7.81210
S1_10 S -18.11054(4) -0.8767(2) 2.3101(2)
C1_10 C -15.4558(2) -0.6354(8) 1.6348(10)
C2_10 C -16.74377(19) -0.4017(7) 1.3304(10)
C3_10 C -17.1719(2) 0.1673(8) 0.1143(11)
C4_10 C -16.1916(2) 0.5690(7) -0.8043(10)
C5_10 C -14.8163(2) 0.3570(8) -0.5207(12)
C6_10 C -13.7748(2) 0.7310(7) -1.4007(10)
C7_10 C -12.4554(2) 0.4588(9) -1.1172(12)
C8_10 C -12.0855(2) -0.1488(8) 0.1033(13)
C9_10 C -13.0713(2) -0.5128(8) 0.9870(11)
C10_10 C -14.4363(2) -0.2552(9) 0.7260(13)
C11_10 C -18.60262(18) 0.1781(8) -0.0361(12)
C12_10 C -19.25643(19) -0.4094(8) 1.0842(10)
C13_10 C -20.60892(19) -0.5968(7) 1.1343(10)
C14_10 C -10.63059(19) -0.4688(8) 0.3526(11)
C15_10 C -10.03422(17) 0.1573(8) 1.5810(11)
C16_10 C -8.61005(18) -0.2652(8) 1.8756(12)
C17_10 C -7.99329(19) 0.2930(9) 3.1382(11)
C18_10 C -6.60553(19) -0.2228(9) 3.4389(13)
C19_10 C -6.0041(2) 0.3077(9) 4.6978(13)
C20_10 C -4.6078(2) -0.2514(9) 4.9679(13)
C21_10 C -3.9651(2) 0.2922(9) 6.2305(14)
C22_10 C -2.5690(2) -0.2583(11) 6.5037(14)
C23_10 C -1.91910(17) 0.2768(11) 7.7388(14)
H1_10 H -15.2292 -1.05003 2.4482
H4_10 H -16.44589 0.97940 -1.6110
H6_10 H -13.98873 1.1759 -2.20046
H7_10 H -11.79071 0.68046 -1.74431
H9_10 H -12.83416 -0.94563 1.78647
H13_10 H -21.01389 -0.99582 1.88328
H14A_10 H -10.11195 -0.1781 -0.42639
H14B_10 H -10.53523 -1.44150 0.4235
H15A_10 H -10.05609 1.1319 1.47724
H15B_10 H -10.59426 -0.07055 2.35196
H16A_10 H -8.04851 -0.00008 1.11765
H16B_10 H -8.58587 -1.24333 1.92966
H17A_10 H -8.5783 0.07680 3.89435
H17B_10 H -7.95521 1.26924 3.06296
H18A_10 H -6.01741 0.00802 2.68937
H18B_10 H -6.64080 -1.20008 3.49686
H19A_10 H -5.94962 1.28474 4.63938
H19B_10 H -6.58810 0.08420 5.45097
H20A_10 H -4.03069 -0.04171 4.20444
H20B_10 H -4.66711 -1.2268 5.03784
H21A_10 H -3.912 1.26824 6.16160
H21B_10 H -4.54336 0.07988 6.99373
H22A_10 H -1.99750 -0.05351 5.73521
H22B_10 H -2.62781 -1.23354 6.57840
H23A_10 H -1.87846 1.24480 7.68969
H23B_10 H -2.43645 0.01434 8.51662
H23C_10 H -1.02069 -0.08135 7.81210
S1_11 S -22.30081(4) 0.8767(2) 3.8013(2)
C1_11 C -24.9555(2) 0.6354(8) 4.4766(10)
C2_11 C -23.66758(19) 0.4017(7) 4.7809(10)
C3_11 C -23.2395(2) -0.1673(8) 5.9971(11)
C4_11 C -24.2197(2) -0.5690(7) 6.9156(10)
C5_11 C -25.5951(2) -0.3570(8) 6.6321(12)
C6_11 C -26.6366(2) -0.7310(7) 7.5121(10)
C7_11 C -27.9560(2) -0.4588(9) 7.2285(12)
C8_11 C -28.3258(2) 0.1488(8) 6.0081(13)
C9_11 C -27.3400(2) 0.5128(8) 5.1244(11)
C10_11 C -25.9751(2) 0.2552(9) 5.3853(13)
C11_11 C -21.80873(18) -0.1781(8) 6.1474(12)
C12_11 C -21.15492(19) 0.4094(8) 5.0272(10)
C13_11 C -19.80243(19) 0.5968(7) 4.9771(10)
C14_11 C -29.78076(19) 0.4688(8) 5.7587(11)
C15_11 C -30.37713(17) -0.1573(8) 4.5304(11)
C16_11 C -31.80130(18) 0.2652(8) 4.2358(12)
C17_11 C -32.41806(19) -0.2930(9) 2.9732(11)
C18_11 C -33.80582(19) 0.2228(9) 2.6725(13)
C19_11 C -34.4072(2) -0.3077(9) 1.4136(13)
C20_11 C -35.8035(2) 0.2514(9) 1.1434(13)
C21_11 C -36.4463(2) -0.2922(9) -0.1192(14)
C22_11 C -37.8424(2) 0.2583(11) -0.3923(14)
C23_11 C -38.49225(17) -0.2768(11) -1.6275(14)
H1_11 H -25.1821 1.05003 3.6632
H4_11 H -23.96546 -0.97940 7.7223
H6_11 H -26.42262 -1.1759 8.31183
H7_11 H -28.62064 -0.68046 7.85567
H9_11 H -27.57719 0.94563 4.32489
H13_11 H -19.39746 0.99582 4.22809
H14A_11 H -30.29939 0.1781 6.53776
H14B_11 H -29.87612 1.44150 5.6878
H15A_11 H -30.35526 -1.1319 4.63413
H15B_11 H -29.81709 0.07055 3.75941
H16A_11 H -32.36283 0.00008 4.99372
H16B_11 H -31.82548 1.24333 4.18170
H17A_11 H -31.8331 -0.07680 2.21702
H17B_11 H -32.45614 -1.26924 3.04841
H18A_11 H -34.39394 -0.00802 3.42200
H18B_11 H -33.77055 1.20008 2.61450
H19A_11 H -34.46173 -1.28474 1.47198
H19B_11 H -33.82325 -0.08420 0.66039
H20A_11 H -36.38066 0.04171 1.90693
H20B_11 H -35.74424 1.2268 1.07352
H21A_11 H -36.499 -1.26824 -0.05024
H21B_11 H -35.86799 -0.07988 -0.88236
H22A_11 H -38.41385 0.05351 0.37615
H22B_11 H -37.78354 1.23354 -0.46703
H23A_11 H -38.53289 -1.24480 -1.57832
H23B_11 H -37.97490 -0.01434 -2.40525
H23C_11 H -39.39066 0.08135 -1.70073
S1_12 S -18.54089(4) -0.8767(2) 8.4215(2)
C1_12 C -15.8862(2) -0.6354(8) 7.7462(10)
C2_12 C -17.17412(19) -0.4017(7) 7.4418(10)
C3_12 C -17.6022(2) 0.1673(8) 6.2256(11)
C4_12 C -16.6220(2) 0.5690(7) 5.3071(10)
C5_12 C -15.2466(2) 0.3570(8) 5.5907(12)
C6_12 C -14.2051(2) 0.7310(7) 4.7106(10)
C7_12 C -12.8857(2) 0.4588(9) 4.9942(12)
C8_12 C -12.5159(2) -0.1488(8) 6.2146(13)
C9_12 C -13.5017(2) -0.5128(8) 7.0984(11)
C10_12 C -14.8666(2) -0.2552(9) 6.8374(13)
C11_12 C -19.03297(18) 0.1781(8) 6.0753(12)
C12_12 C -19.68678(19) -0.4094(8) 7.1955(10)
C13_12 C -21.03927(19) -0.5968(7) 7.2456(10)
C14_12 C -11.06094(19) -0.4688(8) 6.4640(11)
C15_12 C -10.46457(17) 0.1573(8) 7.6924(11)
C16_12 C -9.04040(18) -0.2652(8) 7.9869(12)
C17_12 C -8.42364(19) 0.2930(9) 9.2496(11)
C18_12 C -7.03588(19) -0.2228(9) 9.5502(13)
C19_12 C -6.4345(2) 0.3077(9) 10.8092(13)
C20_12 C -5.0382(2) -0.2514(9) 11.0793(13)
C21_12 C -4.3954(2) 0.2922(9) 12.3419(14)
C22_12 C -2.9993(2) -0.2583(11) 12.6151(14)
C23_12 C -2.34945(17) 0.2768(11) 13.8502(14)
H1_12 H -15.6596 -1.05003 8.5596
H4_12 H -16.87624 0.97940 4.5004
H6_12 H -14.41908 1.1759 3.91091
H7_12 H -12.22106 0.68046 4.36706
H9_12 H -13.26451 -0.94563 7.89784
H13_12 H -21.44424 -0.99582 7.99465
H14A_12 H -10.54230 -0.1781 5.68498
H14B_12 H -10.96558 -1.44150 6.5349
H15A_12 H -10.48644 1.1319 7.58861
H15B_12 H -11.02461 -0.07055 8.46333
H16A_12 H -8.47886 -0.00008 7.22901
H16B_12 H -9.01622 -1.24333 8.04103
H17A_12 H -9.0086 0.07680 10.00571
H17B_12 H -8.38556 1.26924 9.17432
H18A_12 H -6.44776 0.00802 8.80073
H18B_12 H -7.07115 -1.20008 9.60823
H19A_12 H -6.37997 1.28474 10.75075
H19B_12 H -7.01845 0.08420 11.56234
H20A_12 H -4.46104 -0.04171 10.31580
H20B_12 H -5.09745 -1.2268 11.14921
H21A_12 H -4.343 1.26824 12.27297
H21B_12 H -4.97371 0.07988 13.10509
H22A_12 H -2.42785 -0.05351 11.84658
H22B_12 H -3.05816 -1.23354 12.68976
H23A_12 H -2.30881 1.24480 13.80105
H23B_12 H -2.86680 0.01434 14.62798
H23C_12 H -1.45104 -0.08135 13.92347
S1_13 S -21.44011(4) 8.5873(2) -8.4215(2)
C1_13 C -24.0948(2) 8.3460(8) -7.7462(10)
C2_13 C -22.80688(19) 8.1123(7) -7.4418(10)
C3_13 C -22.3788(2) 7.5433(8) -6.2256(11)
C4_13 C -23.3590(2) 7.1416(7) -5.3071(10)
C5_13 C -24.7344(2) 7.3536(8) -5.5907(12)
C6_13 C -25.7759(2) 6.9796(7) -4.7106(10)
C7_13 C -27.0953(2) 7.2518(9) -4.9942(12)
C8_13 C -27.4651(2) 7.8594(8) -6.2146(13)
C9_13 C -26.4793(2) 8.2234(8) -7.0984(11)
C10_13 C -25.1144(2) 7.9658(9) -6.8374(13)
C11_13 C -20.94803(18) 7.5325(8) -6.0753(12)
C12_13 C -20.29422(19) 8.1200(8) -7.1955(10)
C13_13 C -18.94173(19) 8.3074(7) -7.2456(10)
C14_13 C -28.92006(19) 8.1794(8) -6.4640(11)
C15_13 C -29.51643(17) 7.5533(8) -7.6924(11)
C16_13 C -30.94060(18) 7.9758(8) -7.9869(12)
C17_13 C -31.55736(19) 7.4176(9) -9.2496(11)
C18_13 C -32.94512(19) 7.9334(9) -9.5502(13)
C19_13 C -33.5465(2) 7.4029(9) -10.8092(13)
C20_13 C -34.9428(2) 7.9620(9) -11.0793(13)
C21_13 C -35.5856(2) 7.4184(9) -12.3419(14)
C22_13 C -36.9817(2) 7.9689(11) -12.6151(14)
C23_13 C -37.63155(17) 7.4338(11) -13.8502(14)
H1_13 H -24.3214 8.76063 -8.5596
H4_13 H -23.10476 6.73120 -4.5004
H6_13 H -25.56192 6.5347 -3.91091
H7_13 H -27.75994 7.03014 -4.36706
H9_13 H -26.71649 8.65623 -7.89784
H13_13 H -18.53676 8.70642 -7.99465
H14A_13 H -29.43870 7.8887 -5.68498
H14B_13 H -29.01542 9.15210 -6.5349
H15A_13 H -29.49456 6.5787 -7.58861
H15B_13 H -28.95639 7.78115 -8.46333
H16A_13 H -31.50214 7.71068 -7.22901
H16B_13 H -30.96478 8.95393 -8.04103
H17A_13 H -30.9724 7.63380 -10.00571
H17B_13 H -31.59544 6.44136 -9.17432
H18A_13 H -33.53324 7.70258 -8.80073
H18B_13 H -32.90985 8.91068 -9.60823
H19A_13 H -33.60103 6.42586 -10.75075
H19B_13 H -32.96255 7.62640 -11.56234
H20A_13 H -35.51996 7.75231 -10.31580
H20B_13 H -34.88355 8.9374 -11.14921
H21A_13 H -35.638 6.44236 -12.27297
H21B_13 H -35.00729 7.63072 -13.10509
H22A_13 H -37.55315 7.76411 -11.84658
H22B_13 H -36.92284 8.94414 -12.68976
H23A_13 H -37.67219 6.46580 -13.80105
H23B_13 H -37.11420 7.69626 -14.62798
H23C_13 H -38.52996 7.79195 -13.92347
S1_14 S -17.68019(4) 6.8339(2) -3.8013(2)
C1_14 C -15.0255(2) 7.0752(8) -4.4766(10)
C2_14 C -16.31342(19) 7.3089(7) -4.7809(10)
C3_14 C -16.7415(2) 7.8779(8) -5.9971(11)
C4_14 C -15.7613(2) 8.2796(7) -6.9156(10)
C5_14 C -14.3859(2) 8.0676(8) -6.6321(12)
C6_14 C -13.3444(2) 8.4416(7) -7.5121(10)
C7_14 C -12.0250(2) 8.1694(9) -7.2285(12)
C8_14 C -11.6552(2) 7.5618(8) -6.0081(13)
C9_14 C -12.6410(2) 7.1978(8) -5.1244(11)
C10_14 C -14.0059(2) 7.4554(9) -5.3853(13)
C11_14 C -18.17227(18) 7.8887(8) -6.1474(12)
C12_14 C -18.82608(19) 7.3012(8) -5.0272(10)
C13_14 C -20.17857(19) 7.1138(7) -4.9771(10)
C14_14 C -10.20024(19) 7.2418(8) -5.7587(11)
C15_14 C -9.60387(17) 7.8679(8) -4.5304(11)
C16_14 C -8.17970(18) 7.4454(8) -4.2358(12)
C17_14 C -7.56294(19) 8.0036(9) -2.9732(11)
C18_14 C -6.17518(19) 7.4878(9) -2.6725(13)
C19_14 C -5.5738(2) 8.0183(9) -1.4136(13)
C20_14 C -4.1775(2) 7.4592(9) -1.1434(13)
C21_14 C -3.5347(2) 8.0028(9) 0.1192(14)
C22_14 C -2.1386(2) 7.4523(11) 0.3923(14)
C23_14 C -1.48875(17) 7.9874(11) 1.6275(14)
H1_14 H -14.7989 6.66057 -3.6632
H4_14 H -16.01554 8.69000 -7.7223
H6_14 H -13.55838 8.8865 -8.31183
H7_14 H -11.36036 8.39106 -7.85567
H9_14 H -12.40381 6.76497 -4.32489
H13_14 H -20.58354 6.71478 -4.22809
H14A_14 H -9.68161 7.5325 -6.53776
H14B_14 H -10.10488 6.26910 -5.6878
H15A_14 H -9.62574 8.8425 -4.63413
H15B_14 H -10.16391 7.64005 -3.75941
H16A_14 H -7.61817 7.71052 -4.99372
H16B_14 H -8.15552 6.46727 -4.18170
H17A_14 H -8.1479 7.78740 -2.21702
H17B_14 H -7.52486 8.97984 -3.04841
H18A_14 H -5.58706 7.71862 -3.42200
H18B_14 H -6.21045 6.51052 -2.61450
H19A_14 H -5.51927 8.99534 -1.47198
H19B_14 H -6.15775 7.79480 -0.66039
H20A_14 H -3.60034 7.66889 -1.90693
H20B_14 H -4.23676 6.4838 -1.07352
H21A_14 H -3.482 8.97884 0.05024
H21B_14 H -4.11301 7.79048 0.88236
H22A_14 H -1.56715 7.65709 -0.37615
H22B_14 H -2.19746 6.47706 0.46703
H23A_14 H -1.44811 8.95540 1.57832
H23B_14 H -2.00610 7.72494 2.40525
H23C_14 H -0.59034 7.62925 1.70073
S1_15 S -21.87046(4) 8.5873(2) -2.3101(2)
C1_15 C -24.5252(2) 8.3460(8) -1.6348(10)
C2_15 C -23.23723(19) 8.1123(7) -1.3304(10)
C3_15 C -22.8091(2) 7.5433(8) -0.1143(11)
C4_15 C -23.7894(2) 7.1416(7) 0.8043(10)
C5_15 C -25.1647(2) 7.3536(8) 0.5207(12)
C6_15 C -26.2062(2) 6.9796(7) 1.4007(10)
C7_15 C -27.5256(2) 7.2518(9) 1.1172(12)
C8_15 C -27.8955(2) 7.8594(8) -0.1033(13)
C9_15 C -26.9097(2) 8.2234(8) -0.9870(11)
C10_15 C -25.5447(2) 7.9658(9) -0.7260(13)
C11_15 C -21.37838(18) 7.5325(8) 0.0361(12)
C12_15 C -20.72457(19) 8.1200(8) -1.0842(10)
C13_15 C -19.37208(19) 8.3074(7) -1.1343(10)
C14_15 C -29.35041(19) 8.1794(8) -0.3526(11)
C15_15 C -29.94678(17) 7.5533(8) -1.5810(11)
C16_15 C -31.37095(18) 7.9758(8) -1.8756(12)
C17_15 C -31.98771(19) 7.4176(9) -3.1382(11)
C18_15 C -33.37547(19) 7.9334(9) -3.4389(13)
C19_15 C -33.9769(2) 7.4029(9) -4.6978(13)
C20_15 C -35.3732(2) 7.9620(9) -4.9679(13)
C21_15 C -36.0159(2) 7.4184(9) -6.2305(14)
C22_15 C -37.4120(2) 7.9689(11) -6.5037(14)
C23_15 C -38.06190(17) 7.4338(11) -7.7388(14)
H1_15 H -24.7518 8.76063 -2.4482
H4_15 H -23.53511 6.73120 1.6110
H6_15 H -25.99227 6.5347 2.20046
H7_15 H -28.19029 7.03014 1.74431
H9_15 H -27.14684 8.65623 -1.78647
H13_15 H -18.96711 8.70642 -1.88328
H14A_15 H -29.86905 7.8887 0.42639
H14B_15 H -29.44577 9.15210 -0.4235
H15A_15 H -29.92491 6.5787 -1.47724
H15B_15 H -29.38674 7.78115 -2.35196
H16A_15 H -31.93249 7.71068 -1.11765
H16B_15 H -31.39513 8.95393 -1.92966
H17A_15 H -31.4027 7.63380 -3.89435
H17B_15 H -32.02579 6.44136 -3.06296
H18A_15 H -33.96359 7.70258 -2.68937
H18B_15 H -33.34020 8.91068 -3.49686
H19A_15 H -34.03138 6.42586 -4.63938
H19B_15 H -33.39290 7.62640 -5.45097
H20A_15 H -35.95031 7.75231 -4.20444
H20B_15 H -35.31389 8.9374 -5.03784
H21A_15 H -36.069 6.44236 -6.16160
H21B_15 H -35.43764 7.63072 -6.99373
H22A_15 H -37.98350 7.76411 -5.73521
H22B_15 H -37.35319 8.94414 -6.57840
H23A_15 H -38.10254 6.46580 -7.68969
H23B_15 H -37.54455 7.69626 -8.51662
H23C_15 H -38.96031 7.79195 -7.81210
S1_16 S -18.11054(4) 6.8339(2) 2.3101(2)
C1_16 C -15.4558(2) 7.0752(8) 1.6348(10)
C2_16 C -16.74377(19) 7.3089(7) 1.3304(10)
C3_16 C -17.1719(2) 7.8779(8) 0.1143(11)
C4_16 C -16.1916(2) 8.2796(7) -0.8043(10)
C5_16 C -14.8163(2) 8.0676(8) -0.5207(12)
C6_16 C -13.7748(2) 8.4416(7) -1.4007(10)
C7_16 C -12.4554(2) 8.1694(9) -1.1172(12)
C8_16 C -12.0855(2) 7.5618(8) 0.1033(13)
C9_16 C -13.0713(2) 7.1978(8) 0.9870(11)
C10_16 C -14.4363(2) 7.4554(9) 0.7260(13)
C11_16 C -18.60262(18) 7.8887(8) -0.0361(12)
C12_16 C -19.25643(19) 7.3012(8) 1.0842(10)
C13_16 C -20.60892(19) 7.1138(7) 1.1343(10)
C14_16 C -10.63059(19) 7.2418(8) 0.3526(11)
C15_16 C -10.03422(17) 7.8679(8) 1.5810(11)
C16_16 C -8.61005(18) 7.4454(8) 1.8756(12)
C17_16 C -7.99329(19) 8.0036(9) 3.1382(11)
C18_16 C -6.60553(19) 7.4878(9) 3.4389(13)
C19_16 C -6.0041(2) 8.0183(9) 4.6978(13)
C20_16 C -4.6078(2) 7.4592(9) 4.9679(13)
C21_16 C -3.9651(2) 8.0028(9) 6.2305(14)
C22_16 C -2.5690(2) 7.4523(11) 6.5037(14)
C23_16 C -1.91910(17) 7.9874(11) 7.7388(14)
H1_16 H -15.2292 6.66057 2.4482
H4_16 H -16.44589 8.69000 -1.6110
H6_16 H -13.98873 8.8865 -2.20046
H7_16 H -11.79071 8.39106 -1.74431
H9_16 H -12.83416 6.76497 1.78647
H13_16 H -21.01389 6.71478 1.88328
H14A_16 H -10.11195 7.5325 -0.42639
H14B_16 H -10.53523 6.26910 0.4235
H15A_16 H -10.05609 8.8425 1.47724
H15B_16 H -10.59426 7.64005 2.35196
H16A_16 H -8.04851 7.71052 1.11765
H16B_16 H -8.58587 6.46727 1.92966
H17A_16 H -8.5783 7.78740 3.89435
H17B_16 H -7.95521 8.97984 3.06296
H18A_16 H -6.01741 7.71862 2.68937
H18B_16 H -6.64080 6.51052 3.49686
H19A_16 H -5.94962 8.99534 4.63938
H19B_16 H -6.58810 7.79480 5.45097
H20A_16 H -4.03069 7.66889 4.20444
H20B_16 H -4.66711 6.4838 5.03784
H21A_16 H -3.912 8.97884 6.16160
H21B_16 H -4.54336 7.79048 6.99373
H22A_16 H -1.99750 7.65709 5.73521
H22B_16 H -2.62781 6.47706 6.57840
H23A_16 H -1.87846 8.95540 7.68969
H23B_16 H -2.43645 7.72494 8.51662
H23C_16 H -1.02069 7.62925 7.81210
S1_17 S -22.30081(4) 8.5873(2) 3.8013(2)
C1_17 C -24.9555(2) 8.3460(8) 4.4766(10)
C2_17 C -23.66758(19) 8.1123(7) 4.7809(10)
C3_17 C -23.2395(2) 7.5433(8) 5.9971(11)
C4_17 C -24.2197(2) 7.1416(7) 6.9156(10)
C5_17 C -25.5951(2) 7.3536(8) 6.6321(12)
C6_17 C -26.6366(2) 6.9796(7) 7.5121(10)
C7_17 C -27.9560(2) 7.2518(9) 7.2285(12)
C8_17 C -28.3258(2) 7.8594(8) 6.0081(13)
C9_17 C -27.3400(2) 8.2234(8) 5.1244(11)
C10_17 C -25.9751(2) 7.9658(9) 5.3853(13)
C11_17 C -21.80873(18) 7.5325(8) 6.1474(12)
C12_17 C -21.15492(19) 8.1200(8) 5.0272(10)
C13_17 C -19.80243(19) 8.3074(7) 4.9771(10)
C14_17 C -29.78076(19) 8.1794(8) 5.7587(11)
C15_17 C -30.37713(17) 7.5533(8) 4.5304(11)
C16_17 C -31.80130(18) 7.9758(8) 4.2358(12)
C17_17 C -32.41806(19) 7.4176(9) 2.9732(11)
C18_17 C -33.80582(19) 7.9334(9) 2.6725(13)
C19_17 C -34.4072(2) 7.4029(9) 1.4136(13)
C20_17 C -35.8035(2) 7.9620(9) 1.1434(13)
C21_17 C -36.4463(2) 7.4184(9) -0.1192(14)
C22_17 C -37.8424(2) 7.9689(11) -0.3923(14)
C23_17 C -38.49225(17) 7.4338(11) -1.6275(14)
H1_17 H -25.1821 8.76063 3.6632
H4_17 H -23.96546 6.73120 7.7223
H6_17 H -26.42262 6.5347 8.31183
H7_17 H -28.62064 7.03014 7.85567
H9_17 H -27.57719 8.65623 4.32489
H13_17 H -19.39746 8.70642 4.22809
H14A_17 H -30.29939 7.8887 6.53776
H14B_17 H -29.87612 9.15210 5.6878
H15A_17 H -30.35526 6.5787 4.63413
H15B_17 H -29.81709 7.78115 3.75941
H16A_17 H -32.36283 7.71068 4.99372
H16B_17 H -31.82548 8.95393 4.18170
H17A_17 H -31.8331 7.63380 2.21702
H17B_17 H -32.45614 6.44136 3.04841
H18A_17 H -34.39394 7.70258 3.42200
H18B_17 H -33.77055 8.91068 2.61450
H19A_17 H -34.46173 6.42586 1.47198
H19B_17 H -33.82325 7.62640 0.66039
H20A_17 H -36.38066 7.75231 1.90693
H20B_17 H -35.74424 8.9374 1.07352
H21A_17 H -36.499 6.44236 -0.05024
H21B_17 H -35.86799 7.63072 -0.88236
H22A_17 H -38.41385 7.76411 0.37615
H22B_17 H -37.78354 8.94414 -0.46703
H23A_17 H -38.53289 6.46580 -1.57832
H23B_17 H -37.97490 7.69626 -2.40525
H23C_17 H -39.39066 7.79195 -1.70073
S1_18 S -18.54089(4) 6.8339(2) 8.4215(2)
C1_18 C -15.8862(2) 7.0752(8) 7.7462(10)
C2_18 C -17.17412(19) 7.3089(7) 7.4418(10)
C3_18 C -17.6022(2) 7.8779(8) 6.2256(11)
C4_18 C -16.6220(2) 8.2796(7) 5.3071(10)
C5_18 C -15.2466(2) 8.0676(8) 5.5907(12)
C6_18 C -14.2051(2) 8.4416(7) 4.7106(10)
C7_18 C -12.8857(2) 8.1694(9) 4.9942(12)
C8_18 C -12.5159(2) 7.5618(8) 6.2146(13)
C9_18 C -13.5017(2) 7.1978(8) 7.0984(11)
C10_18 C -14.8666(2) 7.4554(9) 6.8374(13)
C11_18 C -19.03297(18) 7.8887(8) 6.0753(12)
C12_18 C -19.68678(19) 7.3012(8) 7.1955(10)
C13_18 C -21.03927(19) 7.1138(7) 7.2456(10)
C14_18 C -11.06094(19) 7.2418(8) 6.4640(11)
C15_18 C -10.46457(17) 7.8679(8) 7.6924(11)
C16_18 C -9.04040(18) 7.4454(8) 7.9869(12)
C17_18 C -8.42364(19) 8.0036(9) 9.2496(11)
C18_18 C -7.03588(19) 7.4878(9) 9.5502(13)
C19_18 C -6.4345(2) 8.0183(9) 10.8092(13)
C20_18 C -5.0382(2) 7.4592(9) 11.0793(13)
C21_18 C -4.3954(2) 8.0028(9) 12.3419(14)
C22_18 C -2.9993(2) 7.4523(11) 12.6151(14)
C23_18 C -2.34945(17) 7.9874(11) 13.8502(14)
H1_18 H -15.6596 6.66057 8.5596
H4_18 H -16.87624 8.69000 4.5004
H6_18 H -14.41908 8.8865 3.91091
H7_18 H -12.22106 8.39106 4.36706
H9_18 H -13.26451 6.76497 7.89784
H13_18 H -21.44424 6.71478 7.99465
H14A_18 H -10.54230 7.5325 5.68498
H14B_18 H -10.96558 6.26910 6.5349
H15A_18 H -10.48644 8.8425 7.58861
H15B_18 H -11.02461 7.64005 8.46333
H16A_18 H -8.47886 7.71052 7.22901
H16B_18 H -9.01622 6.46727 8.04103
H17A_18 H -9.0086 7.78740 10.00571
H17B_18 H -8.38556 8.97984 9.17432
H18A_18 H -6.44776 7.71862 8.80073
H18B_18 H -7.07115 6.51052 9.60823
H19A_18 H -6.37997 8.99534 10.75075
H19B_18 H -7.01845 7.79480 11.56234
H20A_18 H -4.46104 7.66889 10.31580
H20B_18 H -5.09745 6.4838 11.14921
H21A_18 H -4.343 8.97884 12.27297
H21B_18 H -4.97371 7.79048 13.10509
H22A_18 H -2.42785 7.65709 11.84658
H22B_18 H -3.05816 6.47706 12.68976
H23A_18 H -2.30881 8.95540 13.80105
H23B_18 H -2.86680 7.72494 14.62798
H23C_18 H -1.45104 7.62925 13.92347
S1_19 S 18.54089(4) -6.8339(2) -8.4215(2)
C1_19 C 15.8862(2) -7.0752(8) -7.7462(10)
C2_19 C 17.17412(19) -7.3089(7) -7.4418(10)
C3_19 C 17.6022(2) -7.8779(8) -6.2256(11)
C4_19 C 16.6220(2) -8.2796(7) -5.3071(10)
C5_19 C 15.2466(2) -8.0676(8) -5.5907(12)
C6_19 C 14.2051(2) -8.4416(7) -4.7106(10)
C7_19 C 12.8857(2) -8.1694(9) -4.9942(12)
C8_19 C 12.5159(2) -7.5618(8) -6.2146(13)
C9_19 C 13.5017(2) -7.1978(8) -7.0984(11)
C10_19 C 14.8666(2) -7.4554(9) -6.8374(13)
C11_19 C 19.03297(18) -7.8887(8) -6.0753(12)
C12_19 C 19.68678(19) -7.3012(8) -7.1955(10)
C13_19 C 21.03927(19) -7.1138(7) -7.2456(10)
C14_19 C 11.06094(19) -7.2418(8) -6.4640(11)
C15_19 C 10.46457(17) -7.8679(8) -7.6924(11)
C16_19 C 9.04040(18) -7.4454(8) -7.9869(12)
C17_19 C 8.42364(19) -8.0036(9) -9.2496(11)
C18_19 C 7.03588(19) -7.4878(9) -9.5502(13)
C19_19 C 6.4345(2) -8.0183(9) -10.8092(13)
C20_19 C 5.0382(2) -7.4592(9) -11.0793(13)
C21_19 C 4.3954(2) -8.0028(9) -12.3419(14)
C22_19 C 2.9993(2) -7.4523(11) -12.6151(14)
C23_19 C 2.34945(17) -7.9874(11) -13.8502(14)
H1_19 H 15.6596 -6.66057 -8.5596
H4_19 H 16.87624 -8.69000 -4.5004
H6_19 H 14.41908 -8.8865 -3.91091
H7_19 H 12.22106 -8.39106 -4.36706
H9_19 H 13.26451 -6.76497 -7.89784
H13_19 H 21.44424 -6.71478 -7.99465
H14A_19 H 10.54230 -7.5325 -5.68498
H14B_19 H 10.96558 -6.26910 -6.5349
H15A_19 H 10.48644 -8.8425 -7.58861
H15B_19 H 11.02461 -7.64005 -8.46333
H16A_19 H 8.47886 -7.71052 -7.22901
H16B_19 H 9.01622 -6.46727 -8.04103
H17A_19 H 9.0086 -7.78740 -10.00571
H17B_19 H 8.38556 -8.97984 -9.17432
H18A_19 H 6.44776 -7.71862 -8.80073
H18B_19 H 7.07115 -6.51052 -9.60823
H19A_19 H 6.37997 -8.99534 -10.75075
H19B_19 H 7.01845 -7.79480 -11.56234
H20A_19 H 4.46104 -7.66889 -10.31580
H20B_19 H 5.09745 -6.4838 -11.14921
H21A_19 H 4.343 -8.97884 -12.27297
H21B_19 H 4.97371 -7.79048 -13.10509
H22A_19 H 2.42785 -7.65709 -11.84658
H22B_19 H 3.05816 -6.47706 -12.68976
H23A_19 H 2.30881 -8.95540 -13.80105
H23B_19 H 2.86680 -7.72494 -14.62798
H23C_19 H 1.45104 -7.62925 -13.92347
S1_20 S 22.30081(4) -8.5873(2) -3.8013(2)
C1_20 C 24.9555(2) -8.3460(8) -4.4766(10)
C2_20 C 23.66758(19) -8.1123(7) -4.7809(10)
C3_20 C 23.2395(2) -7.5433(8) -5.9971(11)
C4_20 C 24.2197(2) -7.1416(7) -6.9156(10)
C5_20 C 25.5951(2) -7.3536(8) -6.6321(12)
C6_20 C 26.6366(2) -6.9796(7) -7.5121(10)
C7_20 C 27.9560(2) -7.2518(9) -7.2285(12)
C8_20 C 28.3258(2) -7.8594(8) -6.0081(13)
C9_20 C 27.3400(2) -8.2234(8) -5.1244(11)
C10_20 C 25.9751(2) -7.9658(9) -5.3853(13)
C11_20 C 21.80873(18) -7.5325(8) -6.1474(12)
C12_20 C 21.15492(19) -8.1200(8) -5.0272(10)
C13_20 C 19.80243(19) -8.3074(7) -4.9771(10)
C14_20 C 29.78076(19) -8.1794(8) -5.7587(11)
C15_20 C 30.37713(17) -7.5533(8) -4.5304(11)
C16_20 C 31.80130(18) -7.9758(8) -4.2358(12)
C17_20 C 32.41806(19) -7.4176(9) -2.9732(11)
C18_20 C 33.80582(19) -7.9334(9) -2.6725(13)
C19_20 C 34.4072(2) -7.4029(9) -1.4136(13)
C20_20 C 35.8035(2) -7.9620(9) -1.1434(13)
C21_20 C 36.4463(2) -7.4184(9) 0.1192(14)
C22_20 C 37.8424(2) -7.9689(11) 0.3923(14)
C23_20 C 38.49225(17) -7.4338(11) 1.6275(14)
H1_20 H 25.1821 -8.76063 -3.6632
H4_20 H 23.96546 -6.73120 -7.7223
H6_20 H 26.42262 -6.5347 -8.31183
H7_20 H 28.62064 -7.03014 -7.85567
H9_20 H 27.57719 -8.65623 -4.32489
H13_20 H 19.39746 -8.70642 -4.22809
H14A_20 H 30.29939 -7.8887 -6.53776
H14B_20 H 29.87612 -9.15210 -5.6878
H15A_20 H 30.35526 -6.5787 -4.63413
H15B_20 H 29.81709 -7.78115 -3.75941
H16A_20 H 32.36283 -7.71068 -4.99372
H16B_20 H 31.82548 -8.95393 -4.18170
H17A_20 H 31.8331 -7.63380 -2.21702
H17B_20 H 32.45614 -6.44136 -3.04841
H18A_20 H 34.39394 -7.70258 -3.42200
H18B_20 H 33.77055 -8.91068 -2.61450
H19A_20 H 34.46173 -6.42586 -1.47198
H19B_20 H 33.82325 -7.62640 -0.66039
H20A_20 H 36.38066 -7.75231 -1.90693
H20B_20 H 35.74424 -8.9374 -1.07352
H21A_20 H 36.499 -6.44236 0.05024
H21B_20 H 35.86799 -7.63072 0.88236
H22A_20 H 38.41385 -7.76411 -0.37615
H22B_20 H 37.78354 -8.94414 0.46703
H23A_20 H 38.53289 -6.46580 1.57832
H23B_20 H 37.97490 -7.69626 2.40525
H23C_20 H 39.39066 -7.79195 1.70073
S1_21 S 18.11054(4) -6.8339(2) -2.3101(2)
C1_21 C 15.4558(2) -7.0752(8) -1.6348(10)
C2_21 C 16.74377(19) -7.3089(7) -1.3304(10)
C3_21 C 17.1719(2) -7.8779(8) -0.1143(11)
C4_21 C 16.1916(2) -8.2796(7) 0.8043(10)
C5_21 C 14.8163(2) -8.0676(8) 0.5207(12)
C6_21 C 13.7748(2) -8.4416(7) 1.4007(10)
C7_21 C 12.4554(2) -8.1694(9) 1.1172(12)
C8_21 C 12.0855(2) -7.5618(8) -0.1033(13)
C9_21 C 13.0713(2) -7.1978(8) -0.9870(11)
C10_21 C 14.4363(2) -7.4554(9) -0.7260(13)
C11_21 C 18.60262(18) -7.8887(8) 0.0361(12)
C12_21 C 19.25643(19) -7.3012(8) -1.0842(10)
C13_21 C 20.60892(19) -7.1138(7) -1.1343(10)
C14_21 C 10.63059(19) -7.2418(8) -0.3526(11)
C15_21 C 10.03422(17) -7.8679(8) -1.5810(11)
C16_21 C 8.61005(18) -7.4454(8) -1.8756(12)
C17_21 C 7.99329(19) -8.0036(9) -3.1382(11)
C18_21 C 6.60553(19) -7.4878(9) -3.4389(13)
C19_21 C 6.0041(2) -8.0183(9) -4.6978(13)
C20_21 C 4.6078(2) -7.4592(9) -4.9679(13)
C21_21 C 3.9651(2) -8.0028(9) -6.2305(14)
C22_21 C 2.5690(2) -7.4523(11) -6.5037(14)
C23_21 C 1.91910(17) -7.9874(11) -7.7388(14)
H1_21 H 15.2292 -6.66057 -2.4482
H4_21 H 16.44589 -8.69000 1.6110
H6_21 H 13.98873 -8.8865 2.20046
H7_21 H 11.79071 -8.39106 1.74431
H9_21 H 12.83416 -6.76497 -1.78647
H13_21 H 21.01389 -6.71478 -1.88328
H14A_21 H 10.11195 -7.5325 0.42639
H14B_21 H 10.53523 -6.26910 -0.4235
H15A_21 H 10.05609 -8.8425 -1.47724
H15B_21 H 10.59426 -7.64005 -2.35196
H16A_21 H 8.04851 -7.71052 -1.11765
H16B_21 H 8.58587 -6.46727 -1.92966
H17A_21 H 8.5783 -7.78740 -3.89435
H17B_21 H 7.95521 -8.97984 -3.06296
H18A_21 H 6.01741 -7.71862 -2.68937
H18B_21 H 6.64080 -6.51052 -3.49686
H19A_21 H 5.94962 -8.99534 -4.63938
H19B_21 H 6.58810 -7.79480 -5.45097
H20A_21 H 4.03069 -7.66889 -4.20444
H20B_21 H 4.66711 -6.4838 -5.03784
H21A_21 H 3.912 -8.97884 -6.16160
H21B_21 H 4.54336 -7.79048 -6.99373
H22A_21 H 1.99750 -7.65709 -5.73521
H22B_21 H 2.62781 -6.47706 -6.57840
H23A_21 H 1.87846 -8.95540 -7.68969
H23B_21 H 2.43645 -7.72494 -8.51662
H23C_21 H 1.02069 -7.62925 -7.81210
S1_22 S 21.87046(4) -8.5873(2) 2.3101(2)
C1_22 C 24.5252(2) -8.3460(8) 1.6348(10)
C2_22 C 23.23723(19) -8.1123(7) 1.3304(10)
C3_22 C 22.8091(2) -7.5433(8) 0.1143(11)
C4_22 C 23.7894(2) -7.1416(7) -0.8043(10)
C5_22 C 25.1647(2) -7.3536(8) -0.5207(12)
C6_22 C 26.2062(2) -6.9796(7) -1.4007(10)
C7_22 C 27.5256(2) -7.2518(9) -1.1172(12)
C8_22 C 27.8955(2) -7.8594(8) 0.1033(13)
C9_22 C 26.9097(2) -8.2234(8) 0.9870(11)
C10_22 C 25.5447(2) -7.9658(9) 0.7260(13)
C11_22 C 21.37838(18) -7.5325(8) -0.0361(12)
C12_22 C 20.72457(19) -8.1200(8) 1.0842(10)
C13_22 C 19.37208(19) -8.3074(7) 1.1343(10)
C14_22 C 29.35041(19) -8.1794(8) 0.3526(11)
C15_22 C 29.94678(17) -7.5533(8) 1.5810(11)
C16_22 C 31.37095(18) -7.9758(8) 1.8756(12)
C17_22 C 31.98771(19) -7.4176(9) 3.1382(11)
C18_22 C 33.37547(19) -7.9334(9) 3.4389(13)
C19_22 C 33.9769(2) -7.4029(9) 4.6978(13)
C20_22 C 35.3732(2) -7.9620(9) 4.9679(13)
C21_22 C 36.0159(2) -7.4184(9) 6.2305(14)
C22_22 C 37.4120(2) -7.9689(11) 6.5037(14)
C23_22 C 38.06190(17) -7.4338(11) 7.7388(14)
H1_22 H 24.7518 -8.76063 2.4482
H4_22 H 23.53511 -6.73120 -1.6110
H6_22 H 25.99227 -6.5347 -2.20046
H7_22 H 28.19029 -7.03014 -1.74431
H9_22 H 27.14684 -8.65623 1.78647
H13_22 H 18.96711 -8.70642 1.88328
H14A_22 H 29.86905 -7.8887 -0.42639
H14B_22 H 29.44577 -9.15210 0.4235
H15A_22 H 29.92491 -6.5787 1.47724
H15B_22 H 29.38674 -7.78115 2.35196
H16A_22 H 31.93249 -7.71068 1.11765
H16B_22 H 31.39513 -8.95393 1.92966
H17A_22 H 31.4027 -7.63380 3.89435
H17B_22 H 32.02579 -6.44136 3.06296
H18A_22 H 33.96359 -7.70258 2.68937
H18B_22 H 33.34020 -8.91068 3.49686
H19A_22 H 34.03138 -6.42586 4.63938
H19B_22 H 33.39290 -7.62640 5.45097
H20A_22 H 35.95031 -7.75231 4.20444
H20B_22 H 35.31389 -8.9374 5.03784
H21A_22 H 36.069 -6.44236 6.16160
H21B_22 H 35.43764 -7.63072 6.99373
H22A_22 H 37.98350 -7.76411 5.73521
H22B_22 H 37.35319 -8.94414 6.57840
H23A_22 H 38.10254 -6.46580 7.68969
H23B_22 H 37.54455 -7.69626 8.51662
H23C_22 H 38.96031 -7.79195 7.81210
S1_23 S 17.68019(4) -6.8339(2) 3.8013(2)
C1_23 C 15.0255(2) -7.0752(8) 4.4766(10)
C2_23 C 16.31342(19) -7.3089(7) 4.7809(10)
C3_23 C 16.7415(2) -7.8779(8) 5.9971(11)
C4_23 C 15.7613(2) -8.2796(7) 6.9156(10)
C5_23 C 14.3859(2) -8.0676(8) 6.6321(12)
C6_23 C 13.3444(2) -8.4416(7) 7.5121(10)
C7_23 C 12.0250(2) -8.1694(9) 7.2285(12)
C8_23 C 11.6552(2) -7.5618(8) 6.0081(13)
C9_23 C 12.6410(2) -7.1978(8) 5.1244(11)
C10_23 C 14.0059(2) -7.4554(9) 5.3853(13)
C11_23 C 18.17227(18) -7.8887(8) 6.1474(12)
C12_23 C 18.82608(19) -7.3012(8) 5.0272(10)
C13_23 C 20.17857(19) -7.1138(7) 4.9771(10)
C14_23 C 10.20024(19) -7.2418(8) 5.7587(11)
C15_23 C 9.60387(17) -7.8679(8) 4.5304(11)
C16_23 C 8.17970(18) -7.4454(8) 4.2358(12)
C17_23 C 7.56294(19) -8.0036(9) 2.9732(11)
C18_23 C 6.17518(19) -7.4878(9) 2.6725(13)
C19_23 C 5.5738(2) -8.0183(9) 1.4136(13)
C20_23 C 4.1775(2) -7.4592(9) 1.1434(13)
C21_23 C 3.5347(2) -8.0028(9) -0.1192(14)
C22_23 C 2.1386(2) -7.4523(11) -0.3923(14)
C23_23 C 1.48875(17) -7.9874(11) -1.6275(14)
H1_23 H 14.7989 -6.66057 3.6632
H4_23 H 16.01554 -8.69000 7.7223
H6_23 H 13.55838 -8.8865 8.31183
H7_23 H 11.36036 -8.39106 7.85567
H9_23 H 12.40381 -6.76497 4.32489
H13_23 H 20.58354 -6.71478 4.22809
H14A_23 H 9.68161 -7.5325 6.53776
H14B_23 H 10.10488 -6.26910 5.6878
H15A_23 H 9.62574 -8.8425 4.63413
H15B_23 H 10.16391 -7.64005 3.75941
H16A_23 H 7.61817 -7.71052 4.99372
H16B_23 H 8.15552 -6.46727 4.18170
H17A_23 H 8.1479 -7.78740 2.21702
H17B_23 H 7.52486 -8.97984 3.04841
H18A_23 H 5.58706 -7.71862 3.42200
H18B_23 H 6.21045 -6.51052 2.61450
H19A_23 H 5.51927 -8.99534 1.47198
H19B_23 H 6.15775 -7.79480 0.66039
H20A_23 H 3.60034 -7.66889 1.90693
H20B_23 H 4.23676 -6.4838 1.07352
H21A_23 H 3.482 -8.97884 -0.05024
H21B_23 H 4.11301 -7.79048 -0.88236
H22A_23 H 1.56715 -7.65709 0.37615
H22B_23 H 2.19746 -6.47706 -0.46703
H23A_23 H 1.44811 -8.95540 -1.57832
H23B_23 H 2.00610 -7.72494 -2.40525
H23C_23 H 0.59034 -7.62925 -1.70073
S1_24 S 21.44011(4) -8.5873(2) 8.4215(2)
C1_24 C 24.0948(2) -8.3460(8) 7.7462(10)
C2_24 C 22.80688(19) -8.1123(7) 7.4418(10)
C3_24 C 22.3788(2) -7.5433(8) 6.2256(11)
C4_24 C 23.3590(2) -7.1416(7) 5.3071(10)
C5_24 C 24.7344(2) -7.3536(8) 5.5907(12)
C6_24 C 25.7759(2) -6.9796(7) 4.7106(10)
C7_24 C 27.0953(2) -7.2518(9) 4.9942(12)
C8_24 C 27.4651(2) -7.8594(8) 6.2146(13)
C9_24 C 26.4793(2) -8.2234(8) 7.0984(11)
C10_24 C 25.1144(2) -7.9658(9) 6.8374(13)
C11_24 C 20.94803(18) -7.5325(8) 6.0753(12)
C12_24 C 20.29422(19) -8.1200(8) 7.1955(10)
C13_24 C 18.94173(19) -8.3074(7) 7.2456(10)
C14_24 C 28.92006(19) -8.1794(8) 6.4640(11)
C15_24 C 29.51643(17) -7.5533(8) 7.6924(11)
C16_24 C 30.94060(18) -7.9758(8) 7.9869(12)
C17_24 C 31.55736(19) -7.4176(9) 9.2496(11)
C18_24 C 32.94512(19) -7.9334(9) 9.5502(13)
C19_24 C 33.5465(2) -7.4029(9) 10.8092(13)
C20_24 C 34.9428(2) -7.9620(9) 11.0793(13)
C21_24 C 35.5856(2) -7.4184(9) 12.3419(14)
C22_24 C 36.9817(2) -7.9689(11) 12.6151(14)
C23_24 C 37.63155(17) -7.4338(11) 13.8502(14)
H1_24 H 24.3214 -8.76063 8.5596
H4_24 H 23.10476 -6.73120 4.5004
H6_24 H 25.56192 -6.5347 3.91091
H7_24 H 27.75994 -7.03014 4.36706
H9_24 H 26.71649 -8.65623 7.89784
H13_24 H 18.53676 -8.70642 7.99465
H14A_24 H 29.43870 -7.8887 5.68498
H14B_24 H 29.01542 -9.15210 6.5349
H15A_24 H 29.49456 -6.5787 7.58861
H15B_24 H 28.95639 -7.78115 8.46333
H16A_24 H 31.50214 -7.71068 7.22901
H16B_24 H 30.96478 -8.95393 8.04103
H17A_24 H 30.9724 -7.63380 10.00571
H17B_24 H 31.59544 -6.44136 9.17432
H18A_24 H 33.53324 -7.70258 8.80073
H18B_24 H 32.90985 -8.91068 9.60823
H19A_24 H 33.60103 -6.42586 10.75075
H19B_24 H 32.96255 -7.62640 11.56234
H20A_24 H 35.51996 -7.75231 10.31580
H20B_24 H 34.88355 -8.9374 11.14921
H21A_24 H 35.638 -6.44236 12.27297
H21B_24 H 35.00729 -7.63072 13.10509
H22A_24 H 37.55315 -7.76411 11.84658
H22B_24 H 36.92284 -8.94414 12.68976
H23A_24 H 37.67219 -6.46580 13.80105
H23B_24 H 37.11420 -7.69626 14.62798
H23C_24 H 38.52996 -7.79195 13.92347
S1_25 S 18.54089(4) 0.8767(2) -8.4215(2)
C1_25 C 15.8862(2) 0.6354(8) -7.7462(10)
C2_25 C 17.17412(19) 0.4017(7) -7.4418(10)
C3_25 C 17.6022(2) -0.1673(8) -6.2256(11)
C4_25 C 16.6220(2) -0.5690(7) -5.3071(10)
C5_25 C 15.2466(2) -0.3570(8) -5.5907(12)
C6_25 C 14.2051(2) -0.7310(7) -4.7106(10)
C7_25 C 12.8857(2) -0.4588(9) -4.9942(12)
C8_25 C 12.5159(2) 0.1488(8) -6.2146(13)
C9_25 C 13.5017(2) 0.5128(8) -7.0984(11)
C10_25 C 14.8666(2) 0.2552(9) -6.8374(13)
C11_25 C 19.03297(18) -0.1781(8) -6.0753(12)
C12_25 C 19.68678(19) 0.4094(8) -7.1955(10)
C13_25 C 21.03927(19) 0.5968(7) -7.2456(10)
C14_25 C 11.06094(19) 0.4688(8) -6.4640(11)
C15_25 C 10.46457(17) -0.1573(8) -7.6924(11)
C16_25 C 9.04040(18) 0.2652(8) -7.9869(12)
C17_25 C 8.42364(19) -0.2930(9) -9.2496(11)
C18_25 C 7.03588(19) 0.2228(9) -9.5502(13)
C19_25 C 6.4345(2) -0.3077(9) -10.8092(13)
C20_25 C 5.0382(2) 0.2514(9) -11.0793(13)
C21_25 C 4.3954(2) -0.2922(9) -12.3419(14)
C22_25 C 2.9993(2) 0.2583(11) -12.6151(14)
C23_25 C 2.34945(17) -0.2768(11) -13.8502(14)
H1_25 H 15.6596 1.05003 -8.5596
H4_25 H 16.87624 -0.97940 -4.5004
H6_25 H 14.41908 -1.1759 -3.91091
H7_25 H 12.22106 -0.68046 -4.36706
H9_25 H 13.26451 0.94563 -7.89784
H13_25 H 21.44424 0.99582 -7.99465
H14A_25 H 10.54230 0.1781 -5.68498
H14B_25 H 10.96558 1.44150 -6.5349
H15A_25 H 10.48644 -1.1319 -7.58861
H15B_25 H 11.02461 0.07055 -8.46333
H16A_25 H 8.47886 0.00008 -7.22901
H16B_25 H 9.01622 1.24333 -8.04103
H17A_25 H 9.0086 -0.07680 -10.00571
H17B_25 H 8.38556 -1.26924 -9.17432
H18A_25 H 6.44776 -0.00802 -8.80073
H18B_25 H 7.07115 1.20008 -9.60823
H19A_25 H 6.37997 -1.28474 -10.75075
H19B_25 H 7.01845 -0.08420 -11.56234
H20A_25 H 4.46104 0.04171 -10.31580
H20B_25 H 5.09745 1.2268 -11.14921
H21A_25 H 4.343 -1.26824 -12.27297
H21B_25 H 4.97371 -0.07988 -13.10509
H22A_25 H 2.42785 0.05351 -11.84658
H22B_25 H 3.05816 1.23354 -12.68976
H23A_25 H 2.30881 -1.24480 -13.80105
H23B_25 H 2.86680 -0.01434 -14.62798
H23C_25 H 1.45104 0.08135 -13.92347
S1_26 S 22.30081(4) -0.8767(2) -3.8013(2)
C1_26 C 24.9555(2) -0.6354(8) -4.4766(10)
C2_26 C 23.66758(19) -0.4017(7) -4.7809(10)
C3_26 C 23.2395(2) 0.1673(8) -5.9971(11)
C4_26 C 24.2197(2) 0.5690(7) -6.9156(10)
C5_26 C 25.5951(2) 0.3570(8) -6.6321(12)
C6_26 C 26.6366(2) 0.7310(7) -7.5121(10)
C7_26 C 27.9560(2) 0.4588(9) -7.2285(12)
C8_26 C 28.3258(2) -0.1488(8) -6.0081(13)
C9_26 C 27.3400(2) -0.5128(8) -5.1244(11)
C10_26 C 25.9751(2) -0.2552(9) -5.3853(13)
C11_26 C 21.80873(18) 0.1781(8) -6.1474(12)
C12_26 C 21.15492(19) -0.4094(8) -5.0272(10)
C13_26 C 19.80243(19) -0.5968(7) -4.9771(10)
C14_26 C 29.78076(19) -0.4688(8) -5.7587(11)
C15_26 C 30.37713(17) 0.1573(8) -4.5304(11)
C16_26 C 31.80130(18) -0.2652(8) -4.2358(12)
C17_26 C 32.41806(19) 0.2930(9) -2.9732(11)
C18_26 C 33.80582(19) -0.2228(9) -2.6725(13)
C19_26 C 34.4072(2) 0.3077(9) -1.4136(13)
C20_26 C 35.8035(2) -0.2514(9) -1.1434(13)
C21_26 C 36.4463(2) 0.2922(9) 0.1192(14)
C22_26 C 37.8424(2) -0.2583(11) 0.3923(14)
C23_26 C 38.49225(17) 0.2768(11) 1.6275(14)
H1_26 H 25.1821 -1.05003 -3.6632
H4_26 H 23.96546 0.97940 -7.7223
H6_26 H 26.42262 1.1759 -8.31183
H7_26 H 28.62064 0.68046 -7.85567
H9_26 H 27.57719 -0.94563 -4.32489
H13_26 H 19.39746 -0.99582 -4.22809
H14A_26 H 30.29939 -0.1781 -6.53776
H14B_26 H 29.87612 -1.44150 -5.6878
H15A_26 H 30.35526 1.1319 -4.63413
H15B_26 H 29.81709 -0.07055 -3.75941
H16A_26 H 32.36283 -0.00008 -4.99372
H16B_26 H 31.82548 -1.24333 -4.18170
H17A_26 H 31.8331 0.07680 -2.21702
H17B_26 H 32.45614 1.26924 -3.04841
H18A_26 H 34.39394 0.00802 -3.42200
H18B_26 H 33.77055 -1.20008 -2.61450
H19A_26 H 34.46173 1.28474 -1.47198
H19B_26 H 33.82325 0.08420 -0.66039
H20A_26 H 36.38066 -0.04171 -1.90693
H20B_26 H 35.74424 -1.2268 -1.07352
H21A_26 H 36.499 1.26824 0.05024
H21B_26 H 35.86799 0.07988 0.88236
H22A_26 H 38.41385 -0.05351 -0.37615
H22B_26 H 37.78354 -1.23354 0.46703
H23A_26 H 38.53289 1.24480 1.57832
H23B_26 H 37.97490 0.01434 2.40525
H23C_26 H 39.39066 -0.08135 1.70073
S1_27 S 18.11054(4) 0.8767(2) -2.3101(2)
C1_27 C 15.4558(2) 0.6354(8) -1.6348(10)
C2_27 C 16.74377(19) 0.4017(7) -1.3304(10)
C3_27 C 17.1719(2) -0.1673(8) -0.1143(11)
C4_27 C 16.1916(2) -0.5690(7) 0.8043(10)
C5_27 C 14.8163(2) -0.3570(8) 0.5207(12)
C6_27 C 13.7748(2) -0.7310(7) 1.4007(10)
C7_27 C 12.4554(2) -0.4588(9) 1.1172(12)
C8_27 C 12.0855(2) 0.1488(8) -0.1033(13)
C9_27 C 13.0713(2) 0.5128(8) -0.9870(11)
C10_27 C 14.4363(2) 0.2552(9) -0.7260(13)
C11_27 C 18.60262(18) -0.1781(8) 0.0361(12)
C12_27 C 19.25643(19) 0.4094(8) -1.0842(10)
C13_27 C 20.60892(19) 0.5968(7) -1.1343(10)
C14_27 C 10.63059(19) 0.4688(8) -0.3526(11)
C15_27 C 10.03422(17) -0.1573(8) -1.5810(11)
C16_27 C 8.61005(18) 0.2652(8) -1.8756(12)
C17_27 C 7.99329(19) -0.2930(9) -3.1382(11)
C18_27 C 6.60553(19) 0.2228(9) -3.4389(13)
C19_27 C 6.0041(2) -0.3077(9) -4.6978(13)
C20_27 C 4.6078(2) 0.2514(9) -4.9679(13)
C21_27 C 3.9651(2) -0.2922(9) -6.2305(14)
C22_27 C 2.5690(2) 0.2583(11) -6.5037(14)
C23_27 C 1.91910(17) -0.2768(11) -7.7388(14)
H1_27 H 15.2292 1.05003 -2.4482
H4_27 H 16.44589 -0.97940 1.6110
H6_27 H 13.98873 -1.1759 2.20046
H7_27 H 11.79071 -0.68046 1.74431
H9_27 H 12.83416 0.94563 -1.78647
H13_27 H 21.01389 0.99582 -1.88328
H14A_27 H 10.11195 0.1781 0.42639
H14B_27 H 10.53523 1.44150 -0.4235
H15A_27 H 10.05609 -1.1319 -1.47724
H15B_27 H 10.59426 0.07055 -2.35196
H16A_27 H 8.04851 0.00008 -1.11765
H16B_27 H 8.58587 1.24333 -1.92966
H17A_27 H 8.5783 -0.07680 -3.89435
H17B_27 H 7.95521 -1.26924 -3.06296
H18A_27 H 6.01741 -0.00802 -2.68937
H18B_27 H 6.64080 1.20008 -3.49686
H19A_27 H 5.94962 -1.28474 -4.63938
H19B_27 H 6.58810 -0.08420 -5.45097
H20A_27 H 4.03069 0.04171 -4.20444
H20B_27 H 4.66711 1.2268 -5.03784
H21A_27 H 3.912 -1.26824 -6.16160
H21B_27 H 4.54336 -0.07988 -6.99373
H22A_27 H 1.99750 0.05351 -5.73521
H22B_27 H 2.62781 1.23354 -6.57840
H23A_27 H 1.87846 -1.24480 -7.68969
H23B_27 H 2.43645 -0.01434 -8.51662
H23C_27 H 1.02069 0.08135 -7.81210
S1_28 S 21.87046(4) -0.8767(2) 2.3101(2)
C1_28 C 24.5252(2) -0.6354(8) 1.6348(10)
C2_28 C 23.23723(19) -0.4017(7) 1.3304(10)
C3_28 C 22.8091(2) 0.1673(8) 0.1143(11)
C4_28 C 23.7894(2) 0.5690(7) -0.8043(10)
C5_28 C 25.1647(2) 0.3570(8) -0.5207(12)
C6_28 C 26.2062(2) 0.7310(7) -1.4007(10)
C7_28 C 27.5256(2) 0.4588(9) -1.1172(12)
C8_28 C 27.8955(2) -0.1488(8) 0.1033(13)
C9_28 C 26.9097(2) -0.5128(8) 0.9870(11)
C10_28 C 25.5447(2) -0.2552(9) 0.7260(13)
C11_28 C 21.37838(18) 0.1781(8) -0.0361(12)
C12_28 C 20.72457(19) -0.4094(8) 1.0842(10)
C13_28 C 19.37208(19) -0.5968(7) 1.1343(10)
C14_28 C 29.35041(19) -0.4688(8) 0.3526(11)
C15_28 C 29.94678(17) 0.1573(8) 1.5810(11)
C16_28 C 31.37095(18) -0.2652(8) 1.8756(12)
C17_28 C 31.98771(19) 0.2930(9) 3.1382(11)
C18_28 C 33.37547(19) -0.2228(9) 3.4389(13)
C19_28 C 33.9769(2) 0.3077(9) 4.6978(13)
C20_28 C 35.3732(2) -0.2514(9) 4.9679(13)
C21_28 C 36.0159(2) 0.2922(9) 6.2305(14)
C22_28 C 37.4120(2) -0.2583(11) 6.5037(14)
C23_28 C 38.06190(17) 0.2768(11) 7.7388(14)
H1_28 H 24.7518 -1.05003 2.4482
H4_28 H 23.53511 0.97940 -1.6110
H6_28 H 25.99227 1.1759 -2.20046
H7_28 H 28.19029 0.68046 -1.74431
H9_28 H 27.14684 -0.94563 1.78647
H13_28 H 18.96711 -0.99582 1.88328
H14A_28 H 29.86905 -0.1781 -0.42639
H14B_28 H 29.44577 -1.44150 0.4235
H15A_28 H 29.92491 1.1319 1.47724
H15B_28 H 29.38674 -0.07055 2.35196
H16A_28 H 31.93249 -0.00008 1.11765
H16B_28 H 31.39513 -1.24333 1.92966
H17A_28 H 31.4027 0.07680 3.89435
H17B_28 H 32.02579 1.26924 3.06296
H18A_28 H 33.96359 0.00802 2.68937
H18B_28 H 33.34020 -1.20008 3.49686
H19A_28 H 34.03138 1.28474 4.63938
H19B_28 H 33.39290 0.08420 5.45097
H20A_28 H 35.95031 -0.04171 4.20444
H20B_28 H 35.31389 -1.2268 5.03784
H21A_28 H 36.069 1.26824 6.16160
H21B_28 H 35.43764 0.07988 6.99373
H22A_28 H 37.98350 -0.05351 5.73521
H22B_28 H 37.35319 -1.23354 6.57840
H23A_28 H 38.10254 1.24480 7.68969
H23B_28 H 37.54455 0.01434 8.51662
H23C_28 H 38.96031 -0.08135 7.81210
S1_29 S 17.68019(4) 0.8767(2) 3.8013(2)
C1_29 C 15.0255(2) 0.6354(8) 4.4766(10)
C2_29 C 16.31342(19) 0.4017(7) 4.7809(10)
C3_29 C 16.7415(2) -0.1673(8) 5.9971(11)
C4_29 C 15.7613(2) -0.5690(7) 6.9156(10)
C5_29 C 14.3859(2) -0.3570(8) 6.6321(12)
C6_29 C 13.3444(2) -0.7310(7) 7.5121(10)
C7_29 C 12.0250(2) -0.4588(9) 7.2285(12)
C8_29 C 11.6552(2) 0.1488(8) 6.0081(13)
C9_29 C 12.6410(2) 0.5128(8) 5.1244(11)
C10_29 C 14.0059(2) 0.2552(9) 5.3853(13)
C11_29 C 18.17227(18) -0.1781(8) 6.1474(12)
C12_29 C 18.82608(19) 0.4094(8) 5.0272(10)
C13_29 C 20.17857(19) 0.5968(7) 4.9771(10)
C14_29 C 10.20024(19) 0.4688(8) 5.7587(11)
C15_29 C 9.60387(17) -0.1573(8) 4.5304(11)
C16_29 C 8.17970(18) 0.2652(8) 4.2358(12)
C17_29 C 7.56294(19) -0.2930(9) 2.9732(11)
C18_29 C 6.17518(19) 0.2228(9) 2.6725(13)
C19_29 C 5.5738(2) -0.3077(9) 1.4136(13)
C20_29 C 4.1775(2) 0.2514(9) 1.1434(13)
C21_29 C 3.5347(2) -0.2922(9) -0.1192(14)
C22_29 C 2.1386(2) 0.2583(11) -0.3923(14)
C23_29 C 1.48875(17) -0.2768(11) -1.6275(14)
H1_29 H 14.7989 1.05003 3.6632
H4_29 H 16.01554 -0.97940 7.7223
H6_29 H 13.55838 -1.1759 8.31183
H7_29 H 11.36036 -0.68046 7.85567
H9_29 H 12.40381 0.94563 4.32489
H13_29 H 20.58354 0.99582 4.22809
H14A_29 H 9.68161 0.1781 6.53776
H14B_29 H 10.10488 1.44150 5.6878
H15A_29 H 9.62574 -1.1319 4.63413
H15B_29 H 10.16391 0.07055 3.75941
H16A_29 H 7.61817 0.00008 4.99372
H16B_29 H 8.15552 1.24333 4.18170
H17A_29 H 8.1479 -0.07680 2.21702
H17B_29 H 7.52486 -1.26924 3.04841
H18A_29 H 5.58706 -0.00802 3.42200
H18B_29 H 6.21045 1.20008 2.61450
H19A_29 H 5.51927 -1.28474 1.47198
H19B_29 H 6.15775 -0.08420 0.66039
H20A_29 H 3.60034 0.04171 1.90693
H20B_29 H 4.23676 1.2268 1.07352
H21A_29 H 3.482 -1.26824 -0.05024
H21B_29 H 4.11301 -0.07988 -0.88236
H22A_29 H 1.56715 0.05351 0.37615
H22B_29 H 2.19746 1.23354 -0.46703
H23A_29 H 1.44811 -1.24480 -1.57832
H23B_29 H 2.00610 -0.01434 -2.40525
H23C_29 H 0.59034 0.08135 -1.70073
S1_30 S 21.44011(4) -0.8767(2) 8.4215(2)
C1_30 C 24.0948(2) -0.6354(8) 7.7462(10)
C2_30 C 22.80688(19) -0.4017(7) 7.4418(10)
C3_30 C 22.3788(2) 0.1673(8) 6.2256(11)
C4_30 C 23.3590(2) 0.5690(7) 5.3071(10)
C5_30 C 24.7344(2) 0.3570(8) 5.5907(12)
C6_30 C 25.7759(2) 0.7310(7) 4.7106(10)
C7_30 C 27.0953(2) 0.4588(9) 4.9942(12)
C8_30 C 27.4651(2) -0.1488(8) 6.2146(13)
C9_30 C 26.4793(2) -0.5128(8) 7.0984(11)
C10_30 C 25.1144(2) -0.2552(9) 6.8374(13)
C11_30 C 20.94803(18) 0.1781(8) 6.0753(12)
C12_30 C 20.29422(19) -0.4094(8) 7.1955(10)
C13_30 C 18.94173(19) -0.5968(7) 7.2456(10)
C14_30 C 28.92006(19) -0.4688(8) 6.4640(11)
C15_30 C 29.51643(17) 0.1573(8) 7.6924(11)
C16_30 C 30.94060(18) -0.2652(8) 7.9869(12)
C17_30 C 31.55736(19) 0.2930(9) 9.2496(11)
C18_30 C 32.94512(19) -0.2228(9) 9.5502(13)
C19_30 C 33.5465(2) 0.3077(9) 10.8092(13)
C20_30 C 34.9428(2) -0.2514(9) 11.0793(13)
C21_30 C 35.5856(2) 0.2922(9) 12.3419(14)
C22_30 C 36.9817(2) -0.2583(11) 12.6151(14)
C23_30 C 37.63155(17) 0.2768(11) 13.8502(14)
H1_30 H 24.3214 -1.05003 8.5596
H4_30 H 23.10476 0.97940 4.5004
H6_30 H 25.56192 1.1759 3.91091
H7_30 H 27.75994 0.68046 4.36706
H9_30 H 26.71649 -0.94563 7.89784
H13_30 H 18.53676 -0.99582 7.99465
H14A_30 H 29.43870 -0.1781 5.68498
H14B_30 H 29.01542 -1.44150 6.5349
H15A_30 H 29.49456 1.1319 7.58861
H15B_30 H 28.95639 -0.07055 8.46333
H16A_30 H 31.50214 -0.00008 7.22901
H16B_30 H 30.96478 -1.24333 8.04103
H17A_30 H 30.9724 0.07680 10.00571
H17B_30 H 31.59544 1.26924 9.17432
H18A_30 H 33.53324 0.00802 8.80073
H18B_30 H 32.90985 -1.20008 9.60823
H19A_30 H 33.60103 1.28474 10.75075
H19B_30 H 32.96255 0.08420 11.56234
H20A_30 H 35.51996 -0.04171 10.31580
H20B_30 H 34.88355 -1.2268 11.14921
H21A_30 H 35.638 1.26824 12.27297
H21B_30 H 35.00729 0.07988 13.10509
H22A_30 H 37.55315 -0.05351 11.84658
H22B_30 H 36.92284 -1.23354 12.68976
H23A_30 H 37.67219 1.24480 13.80105
H23B_30 H 37.11420 0.01434 14.62798
H23C_30 H 38.52996 -0.08135 13.92347
S1_31 S 18.54089(4) 8.5873(2) -8.4215(2)
C1_31 C 15.8862(2) 8.3460(8) -7.7462(10)
C2_31 C 17.17412(19) 8.1123(7) -7.4418(10)
C3_31 C 17.6022(2) 7.5433(8) -6.2256(11)
C4_31 C 16.6220(2) 7.1416(7) -5.3071(10)
C5_31 C 15.2466(2) 7.3536(8) -5.5907(12)
C6_31 C 14.2051(2) 6.9796(7) -4.7106(10)
C7_31 C 12.8857(2) 7.2518(9) -4.9942(12)
C8_31 C 12.5159(2) 7.8594(8) -6.2146(13)
C9_31 C 13.5017(2) 8.2234(8) -7.0984(11)
C10_31 C 14.8666(2) 7.9658(9) -6.8374(13)
C11_31 C 19.03297(18) 7.5325(8) -6.0753(12)
C12_31 C 19.68678(19) 8.1200(8) -7.1955(10)
C13_31 C 21.03927(19) 8.3074(7) -7.2456(10)
C14_31 C 11.06094(19) 8.1794(8) -6.4640(11)
C15_31 C 10.46457(17) 7.5533(8) -7.6924(11)
C16_31 C 9.04040(18) 7.9758(8) -7.9869(12)
C17_31 C 8.42364(19) 7.4176(9) -9.2496(11)
C18_31 C 7.03588(19) 7.9334(9) -9.5502(13)
C19_31 C 6.4345(2) 7.4029(9) -10.8092(13)
C20_31 C 5.0382(2) 7.9620(9) -11.0793(13)
C21_31 C 4.3954(2) 7.4184(9) -12.3419(14)
C22_31 C 2.9993(2) 7.9689(11) -12.6151(14)
C23_31 C 2.34945(17) 7.4338(11) -13.8502(14)
H1_31 H 15.6596 8.76063 -8.5596
H4_31 H 16.87624 6.73120 -4.5004
H6_31 H 14.41908 6.5347 -3.91091
H7_31 H 12.22106 7.03014 -4.36706
H9_31 H 13.26451 8.65623 -7.89784
H13_31 H 21.44424 8.70642 -7.99465
H14A_31 H 10.54230 7.8887 -5.68498
H14B_31 H 10.96558 9.15210 -6.5349
H15A_31 H 10.48644 6.5787 -7.58861
H15B_31 H 11.02461 7.78115 -8.46333
H16A_31 H 8.47886 7.71068 -7.22901
H16B_31 H 9.01622 8.95393 -8.04103
H17A_31 H 9.0086 7.63380 -10.00571
H17B_31 H 8.38556 6.44136 -9.17432
H18A_31 H 6.44776 7.70258 -8.80073
H18B_31 H 7.07115 8.91068 -9.60823
H19A_31 H 6.37997 6.42586 -10.75075
H19B_31 H 7.01845 7.62640 -11.56234
H20A_31 H 4.46104 7.75231 -10.31580
H20B_31 H 5.09745 8.9374 -11.14921
H21A_31 H 4.343 6.44236 -12.27297
H21B_31 H 4.97371 7.63072 -13.10509
H22A_31 H 2.42785 7.76411 -11.84658
H22B_31 H 3.05816 8.94414 -12.68976
H23A_31 H 2.30881 6.46580 -13.80105
H23B_31 H 2.86680 7.69626 -14.62798
H23C_31 H 1.45104 7.79195 -13.92347
S1_32 S 22.30081(4) 6.8339(2) -3.8013(2)
C1_32 C 24.9555(2) 7.0752(8) -4.4766(10)
C2_32 C 23.66758(19) 7.3089(7) -4.7809(10)
C3_32 C 23.2395(2) 7.8779(8) -5.9971(11)
C4_32 C 24.2197(2) 8.2796(7) -6.9156(10)
C5_32 C 25.5951(2) 8.0676(8) -6.6321(12)
C6_32 C 26.6366(2) 8.4416(7) -7.5121(10)
C7_32 C 27.9560(2) 8.1694(9) -7.2285(12)
C8_32 C 28.3258(2) 7.5618(8) -6.0081(13)
C9_32 C 27.3400(2) 7.1978(8) -5.1244(11)
C10_32 C 25.9751(2) 7.4554(9) -5.3853(13)
C11_32 C 21.80873(18) 7.8887(8) -6.1474(12)
C12_32 C 21.15492(19) 7.3012(8) -5.0272(10)
C13_32 C 19.80243(19) 7.1138(7) -4.9771(10)
C14_32 C 29.78076(19) 7.2418(8) -5.7587(11)
C15_32 C 30.37713(17) 7.8679(8) -4.5304(11)
C16_32 C 31.80130(18) 7.4454(8) -4.2358(12)
C17_32 C 32.41806(19) 8.0036(9) -2.9732(11)
C18_32 C 33.80582(19) 7.4878(9) -2.6725(13)
C19_32 C 34.4072(2) 8.0183(9) -1.4136(13)
C20_32 C 35.8035(2) 7.4592(9) -1.1434(13)
C21_32 C 36.4463(2) 8.0028(9) 0.1192(14)
C22_32 C 37.8424(2) 7.4523(11) 0.3923(14)
C23_32 C 38.49225(17) 7.9874(11) 1.6275(14)
H1_32 H 25.1821 6.66057 -3.6632
H4_32 H 23.96546 8.69000 -7.7223
H6_32 H 26.42262 8.8865 -8.31183
H7_32 H 28.62064 8.39106 -7.85567
H9_32 H 27.57719 6.76497 -4.32489
H13_32 H 19.39746 6.71478 -4.22809
H14A_32 H 30.29939 7.5325 -6.53776
H14B_32 H 29.87612 6.26910 -5.6878
H15A_32 H 30.35526 8.8425 -4.63413
H15B_32 H 29.81709 7.64005 -3.75941
H16A_32 H 32.36283 7.71052 -4.99372
H16B_32 H 31.82548 6.46727 -4.18170
H17A_32 H 31.8331 7.78740 -2.21702
H17B_32 H 32.45614 8.97984 -3.04841
H18A_32 H 34.39394 7.71862 -3.42200
H18B_32 H 33.77055 6.51052 -2.61450
H19A_32 H 34.46173 8.99534 -1.47198
H19B_32 H 33.82325 7.79480 -0.66039
H20A_32 H 36.38066 7.66889 -1.90693
H20B_32 H 35.74424 6.4838 -1.07352
H21A_32 H 36.499 8.97884 0.05024
H21B_32 H 35.86799 7.79048 0.88236
H22A_32 H 38.41385 7.65709 -0.37615
H22B_32 H 37.78354 6.47706 0.46703
H23A_32 H 38.53289 8.95540 1.57832
H23B_32 H 37.97490 7.72494 2.40525
H23C_32 H 39.39066 7.62925 1.70073
S1_33 S 18.11054(4) 8.5873(2) -2.3101(2)
C1_33 C 15.4558(2) 8.3460(8) -1.6348(10)
C2_33 C 16.74377(19) 8.1123(7) -1.3304(10)
C3_33 C 17.1719(2) 7.5433(8) -0.1143(11)
C4_33 C 16.1916(2) 7.1416(7) 0.8043(10)
C5_33 C 14.8163(2) 7.3536(8) 0.5207(12)
C6_33 C 13.7748(2) 6.9796(7) 1.4007(10)
C7_33 C 12.4554(2) 7.2518(9) 1.1172(12)
C8_33 C 12.0855(2) 7.8594(8) -0.1033(13)
C9_33 C 13.0713(2) 8.2234(8) -0.9870(11)
C10_33 C 14.4363(2) 7.9658(9) -0.7260(13)
C11_33 C 18.60262(18) 7.5325(8) 0.0361(12)
C12_33 C 19.25643(19) 8.1200(8) -1.0842(10)
C13_33 C 20.60892(19) 8.3074(7) -1.1343(10)
C14_33 C 10.63059(19) 8.1794(8) -0.3526(11)
C15_33 C 10.03422(17) 7.5533(8) -1.5810(11)
C16_33 C 8.61005(18) 7.9758(8) -1.8756(12)
C17_33 C 7.99329(19) 7.4176(9) -3.1382(11)
C18_33 C 6.60553(19) 7.9334(9) -3.4389(13)
C19_33 C 6.0041(2) 7.4029(9) -4.6978(13)
C20_33 C 4.6078(2) 7.9620(9) -4.9679(13)
C21_33 C 3.9651(2) 7.4184(9) -6.2305(14)
C22_33 C 2.5690(2) 7.9689(11) -6.5037(14)
C23_33 C 1.91910(17) 7.4338(11) -7.7388(14)
H1_33 H 15.2292 8.76063 -2.4482
H4_33 H 16.44589 6.73120 1.6110
H6_33 H 13.98873 6.5347 2.20046
H7_33 H 11.79071 7.03014 1.74431
H9_33 H 12.83416 8.65623 -1.78647
H13_33 H 21.01389 8.70642 -1.88328
H14A_33 H 10.11195 7.8887 0.42639
H14B_33 H 10.53523 9.15210 -0.4235
H15A_33 H 10.05609 6.5787 -1.47724
H15B_33 H 10.59426 7.78115 -2.35196
H16A_33 H 8.04851 7.71068 -1.11765
H16B_33 H 8.58587 8.95393 -1.92966
H17A_33 H 8.5783 7.63380 -3.89435
H17B_33 H 7.95521 6.44136 -3.06296
H18A_33 H 6.01741 7.70258 -2.68937
H18B_33 H 6.64080 8.91068 -3.49686
H19A_33 H 5.94962 6.42586 -4.63938
H19B_33 H 6.58810 7.62640 -5.45097
H20A_33 H 4.03069 7.75231 -4.20444
H20B_33 H 4.66711 8.9374 -5.03784
H21A_33 H 3.912 6.44236 -6.16160
H21B_33 H 4.54336 7.63072 -6.99373
H22A_33 H 1.99750 7.76411 -5.73521
H22B_33 H 2.62781 8.94414 -6.57840
H23A_33 H 1.87846 6.46580 -7.68969
H23B_33 H 2.43645 7.69626 -8.51662
H23C_33 H 1.02069 7.79195 -7.81210
S1_34 S 21.87046(4) 6.8339(2) 2.3101(2)
C1_34 C 24.5252(2) 7.0752(8) 1.6348(10)
C2_34 C 23.23723(19) 7.3089(7) 1.3304(10)
C3_34 C 22.8091(2) 7.8779(8) 0.1143(11)
C4_34 C 23.7894(2) 8.2796(7) -0.8043(10)
C5_34 C 25.1647(2) 8.0676(8) -0.5207(12)
C6_34 C 26.2062(2) 8.4416(7) -1.4007(10)
C7_34 C 27.5256(2) 8.1694(9) -1.1172(12)
C8_34 C 27.8955(2) 7.5618(8) 0.1033(13)
C9_34 C 26.9097(2) 7.1978(8) 0.9870(11)
C10_34 C 25.5447(2) 7.4554(9) 0.7260(13)
C11_34 C 21.37838(18) 7.8887(8) -0.0361(12)
C12_34 C 20.72457(19) 7.3012(8) 1.0842(10)
C13_34 C 19.37208(19) 7.1138(7) 1.1343(10)
C14_34 C 29.35041(19) 7.2418(8) 0.3526(11)
C15_34 C 29.94678(17) 7.8679(8) 1.5810(11)
C16_34 C 31.37095(18) 7.4454(8) 1.8756(12)
C17_34 C 31.98771(19) 8.0036(9) 3.1382(11)
C18_34 C 33.37547(19) 7.4878(9) 3.4389(13)
C19_34 C 33.9769(2) 8.0183(9) 4.6978(13)
C20_34 C 35.3732(2) 7.4592(9) 4.9679(13)
C21_34 C 36.0159(2) 8.0028(9) 6.2305(14)
C22_34 C 37.4120(2) 7.4523(11) 6.5037(14)
C23_34 C 38.06190(17) 7.9874(11) 7.7388(14)
H1_34 H 24.7518 6.66057 2.4482
H4_34 H 23.53511 8.69000 -1.6110
H6_34 H 25.99227 8.8865 -2.20046
H7_34 H 28.19029 8.39106 -1.74431
H9_34 H 27.14684 6.76497 1.78647
H13_34 H 18.96711 6.71478 1.88328
H14A_34 H 29.86905 7.5325 -0.42639
H14B_34 H 29.44577 6.26910 0.4235
H15A_34 H 29.92491 8.8425 1.47724
H15B_34 H 29.38674 7.64005 2.35196
H16A_34 H 31.93249 7.71052 1.11765
H16B_34 H 31.39513 6.46727 1.92966
H17A_34 H 31.4027 7.78740 3.89435
H17B_34 H 32.02579 8.97984 3.06296
H18A_34 H 33.96359 7.71862 2.68937
H18B_34 H 33.34020 6.51052 3.49686
H19A_34 H 34.03138 8.99534 4.63938
H19B_34 H 33.39290 7.79480 5.45097
H20A_34 H 35.95031 7.66889 4.20444
H20B_34 H 35.31389 6.4838 5.03784
H21A_34 H 36.069 8.97884 6.16160
H21B_34 H 35.43764 7.79048 6.99373
H22A_34 H 37.98350 7.65709 5.73521
H22B_34 H 37.35319 6.47706 6.57840
H23A_34 H 38.10254 8.95540 7.68969
H23B_34 H 37.54455 7.72494 8.51662
H23C_34 H 38.96031 7.62925 7.81210
S1_35 S 17.68019(4) 8.5873(2) 3.8013(2)
C1_35 C 15.0255(2) 8.3460(8) 4.4766(10)
C2_35 C 16.31342(19) 8.1123(7) 4.7809(10)
C3_35 C 16.7415(2) 7.5433(8) 5.9971(11)
C4_35 C 15.7613(2) 7.1416(7) 6.9156(10)
C5_35 C 14.3859(2) 7.3536(8) 6.6321(12)
C6_35 C 13.3444(2) 6.9796(7) 7.5121(10)
C7_35 C 12.0250(2) 7.2518(9) 7.2285(12)
C8_35 C 11.6552(2) 7.8594(8) 6.0081(13)
C9_35 C 12.6410(2) 8.2234(8) 5.1244(11)
C10_35 C 14.0059(2) 7.9658(9) 5.3853(13)
C11_35 C 18.17227(18) 7.5325(8) 6.1474(12)
C12_35 C 18.82608(19) 8.1200(8) 5.0272(10)
C13_35 C 20.17857(19) 8.3074(7) 4.9771(10)
C14_35 C 10.20024(19) 8.1794(8) 5.7587(11)
C15_35 C 9.60387(17) 7.5533(8) 4.5304(11)
C16_35 C 8.17970(18) 7.9758(8) 4.2358(12)
C17_35 C 7.56294(19) 7.4176(9) 2.9732(11)
C18_35 C 6.17518(19) 7.9334(9) 2.6725(13)
C19_35 C 5.5738(2) 7.4029(9) 1.4136(13)
C20_35 C 4.1775(2) 7.9620(9) 1.1434(13)
C21_35 C 3.5347(2) 7.4184(9) -0.1192(14)
C22_35 C 2.1386(2) 7.9689(11) -0.3923(14)
C23_35 C 1.48875(17) 7.4338(11) -1.6275(14)
H1_35 H 14.7989 8.76063 3.6632
H4_35 H 16.01554 6.73120 7.7223
H6_35 H 13.55838 6.5347 8.31183
H7_35 H 11.36036 7.03014 7.85567
H9_35 H 12.40381 8.65623 4.32489
H13_35 H 20.58354 8.70642 4.22809
H14A_35 H 9.68161 7.8887 6.53776
H14B_35 H 10.10488 9.15210 5.6878
H15A_35 H 9.62574 6.5787 4.63413
H15B_35 H 10.16391 7.78115 3.75941
H16A_35 H 7.61817 7.71068 4.99372
H16B_35 H 8.15552 8.95393 4.18170
H17A_35 H 8.1479 7.63380 2.21702
H17B_35 H 7.52486 6.44136 3.04841
H18A_35 H 5.58706 7.70258 3.42200
H18B_35 H 6.21045 8.91068 2.61450
H19A_35 H 5.51927 6.42586 1.47198
H19B_35 H 6.15775 7.62640 0.66039
H20A_35 H 3.60034 7.75231 1.90693
H20B_35 H 4.23676 8.9374 1.07352
H21A_35 H 3.482 6.44236 -0.05024
H21B_35 H 4.11301 7.63072 -0.88236
H22A_35 H 1.56715 7.76411 0.37615
H22B_35 H 2.19746 8.94414 -0.46703
H23A_35 H 1.44811 6.46580 -1.57832
H23B_35 H 2.00610 7.69626 -2.40525
H23C_35 H 0.59034 7.79195 -1.70073
S1_36 S 21.44011(4) 6.8339(2) 8.4215(2)
C1_36 C 24.0948(2) 7.0752(8) 7.7462(10)
C2_36 C 22.80688(19) 7.3089(7) 7.4418(10)
C3_36 C 22.3788(2) 7.8779(8) 6.2256(11)
C4_36 C 23.3590(2) 8.2796(7) 5.3071(10)
C5_36 C 24.7344(2) 8.0676(8) 5.5907(12)
C6_36 C 25.7759(2) 8.4416(7) 4.7106(10)
C7_36 C 27.0953(2) 8.1694(9) 4.9942(12)
C8_36 C 27.4651(2) 7.5618(8) 6.2146(13)
C9_36 C 26.4793(2) 7.1978(8) 7.0984(11)
C10_36 C 25.1144(2) 7.4554(9) 6.8374(13)
C11_36 C 20.94803(18) 7.8887(8) 6.0753(12)
C12_36 C 20.29422(19) 7.3012(8) 7.1955(10)
C13_36 C 18.94173(19) 7.1138(7) 7.2456(10)
C14_36 C 28.92006(19) 7.2418(8) 6.4640(11)
C15_36 C 29.51643(17) 7.8679(8) 7.6924(11)
C16_36 C 30.94060(18) 7.4454(8) 7.9869(12)
C17_36 C 31.55736(19) 8.0036(9) 9.2496(11)
C18_36 C 32.94512(19) 7.4878(9) 9.5502(13)
C19_36 C 33.5465(2) 8.0183(9) 10.8092(13)
C20_36 C 34.9428(2) 7.4592(9) 11.0793(13)
C21_36 C 35.5856(2) 8.0028(9) 12.3419(14)
C22_36 C 36.9817(2) 7.4523(11) 12.6151(14)
C23_36 C 37.63155(17) 7.9874(11) 13.8502(14)
H1_36 H 24.3214 6.66057 8.5596
H4_36 H 23.10476 8.69000 4.5004
H6_36 H 25.56192 8.8865 3.91091
H7_36 H 27.75994 8.39106 4.36706
H9_36 H 26.71649 6.76497 7.89784
H13_36 H 18.53676 6.71478 7.99465
H14A_36 H 29.43870 7.5325 5.68498
H14B_36 H 29.01542 6.26910 6.5349
H15A_36 H 29.49456 8.8425 7.58861
H15B_36 H 28.95639 7.64005 8.46333
H16A_36 H 31.50214 7.71052 7.22901
H16B_36 H 30.96478 6.46727 8.04103
H17A_36 H 30.9724 7.78740 10.00571
H17B_36 H 31.59544 8.97984 9.17432
H18A_36 H 33.53324 7.71862 8.80073
H18B_36 H 32.90985 6.51052 9.60823
H19A_36 H 33.60103 8.99534 10.75075
H19B_36 H 32.96255 7.79480 11.56234
H20A_36 H 35.51996 7.66889 10.31580
H20B_36 H 34.88355 6.4838 11.14921
H21A_36 H 35.638 8.97884 12.27297
H21B_36 H 35.00729 7.79048 13.10509
H22A_36 H 37.55315 7.65709 11.84658
H22B_36 H 36.92284 6.47706 12.68976
H23A_36 H 37.67219 8.95540 13.80105
H23B_36 H 37.11420 7.72494 14.62798
H23C_36 H 38.52996 7.62925 13.92347
S1_37 S -17.89537(4) -2.9786(2) -0.7456(2)
C1_37 C -15.2407(2) -3.2199(8) -1.4209(10)
C2_37 C -16.52860(19) -3.4536(7) -1.7252(10)
C3_37 C -16.9567(2) -4.0226(8) -2.9414(11)
C4_37 C -15.9765(2) -4.4243(7) -3.8599(10)
C5_37 C -14.6011(2) -4.2123(8) -3.5764(12)
C6_37 C -13.5596(2) -4.5863(7) -4.4564(10)
C7_37 C -12.2402(2) -4.3141(9) -4.1728(12)
C8_37 C -11.8704(2) -3.7065(8) -2.9524(13)
C9_37 C -12.8561(2) -3.3425(8) -2.0687(11)
C10_37 C -14.2211(2) -3.6001(9) -2.3297(13)
C11_37 C -18.38744(18) -4.0334(8) -3.0917(12)
C12_37 C -19.04125(19) -3.4459(8) -1.9715(10)
C13_37 C -20.39374(19) -3.2585(7) -1.9214(10)
C14_37 C -10.41542(19) -3.3865(8) -2.7031(11)
C15_37 C -9.81904(17) -4.0126(8) -1.4747(11)
C16_37 C -8.39487(18) -3.5901(8) -1.1801(12)
C17_37 C -7.77812(19) -4.1483(9) 0.0825(11)
C18_37 C -6.39036(19) -3.6325(9) 0.3832(13)
C19_37 C -5.7889(2) -4.1630(9) 1.6421(13)
C20_37 C -4.3926(2) -3.6039(9) 1.9122(13)
C21_37 C -3.7499(2) -4.1475(9) 3.1749(14)
C22_37 C -2.3538(2) -3.5970(11) 3.4480(14)
C23_37 C -1.70392(17) -4.1321(11) 4.6831(14)
H1_37 H -15.0141 -2.80527 -0.6075
H4_37 H -16.23072 -4.83470 -4.6666
H6_37 H -13.77355 -5.0312 -5.25614
H7_37 H -11.57553 -4.53576 -4.79999
H9_37 H -12.61899 -2.90967 -1.26921
H13_37 H -20.79872 -2.85948 -1.17240
H14A_37 H -9.89678 -3.6772 -3.48207
H14B_37 H -10.32006 -2.41380 -2.6322
H15A_37 H -9.84092 -4.9872 -1.57844
H15B_37 H -10.37909 -3.78475 -0.70372
H16A_37 H -7.83334 -3.85522 -1.93804
H16B_37 H -8.37069 -2.61197 -1.12602
H17A_37 H -8.3631 -3.93210 0.83866
H17B_37 H -7.74003 -5.12454 0.00727
H18A_37 H -5.80224 -3.86332 -0.36632
H18B_37 H -6.42563 -2.65522 0.44118
H19A_37 H -5.73445 -5.14004 1.58370
H19B_37 H -6.37292 -3.93950 2.39529
H20A_37 H -3.81552 -3.81359 1.14875
H20B_37 H -4.45193 -2.6285 1.98216
H21A_37 H -3.697 -5.12354 3.10592
H21B_37 H -4.32818 -3.93518 3.93804
H22A_37 H -1.78233 -3.80179 2.67953
H22B_37 H -2.41263 -2.62176 3.52271
H23A_37 H -1.66328 -5.10010 4.63400
H23B_37 H -2.22127 -3.86964 5.46093
H23C_37 H -0.80551 -3.77395 4.75642
S1_38 S -21.65528(4) -4.7320(2) -5.3658(2)
C1_38 C -24.3100(2) -4.4907(8) -4.6905(10)
C2_38 C -23.02205(19) -4.2570(7) -4.3861(10)
C3_38 C -22.5939(2) -3.6880(8) -3.1700(11)
C4_38 C -23.5742(2) -3.2863(7) -2.2514(10)
C5_38 C -24.9495(2) -3.4983(8) -2.5350(12)
C6_38 C -25.9911(2) -3.1243(7) -1.6550(10)
C7_38 C -27.3104(2) -3.3965(9) -1.9385(12)
C8_38 C -27.6803(2) -4.0041(8) -3.1590(13)
C9_38 C -26.6945(2) -4.3681(8) -4.0427(11)
C10_38 C -25.3295(2) -4.1105(9) -3.7817(13)
C11_38 C -21.16321(18) -3.6772(8) -3.0196(12)
C12_38 C -20.50940(19) -4.2647(8) -4.1398(10)
C13_38 C -19.15691(19) -4.4521(7) -4.1900(10)
C14_38 C -29.13523(19) -4.3241(8) -3.4083(11)
C15_38 C -29.73161(17) -3.6980(8) -4.6367(11)
C16_38 C -31.15578(18) -4.1205(8) -4.9313(12)
C17_38 C -31.77253(19) -3.5623(9) -6.1939(11)
C18_38 C -33.16029(19) -4.0781(9) -6.4945(13)
C19_38 C -33.7617(2) -3.5476(9) -7.7535(13)
C20_38 C -35.1580(2) -4.1067(9) -8.0236(13)
C21_38 C -35.8008(2) -3.5631(9) -9.2862(14)
C22_38 C -37.1969(2) -4.1136(11) -9.5594(14)
C23_38 C -37.84673(17) -3.5785(11) -10.7945(14)
H1_38 H -24.5366 -4.90533 -5.5039
H4_38 H -23.31993 -2.87590 -1.4447
H6_38 H -25.77710 -2.6794 -0.85522
H7_38 H -27.97512 -3.17484 -1.31138
H9_38 H -26.93166 -4.80093 -4.84216
H13_38 H -18.75193 -4.85112 -4.93896
H14A_38 H -29.65387 -4.0334 -2.62929
H14B_38 H -29.23059 -5.29680 -3.4792
H15A_38 H -29.70973 -2.7234 -4.53292
H15B_38 H -29.17156 -3.92585 -5.40764
H16A_38 H -31.71731 -3.85538 -4.17333
H16B_38 H -31.17996 -5.09863 -4.98535
H17A_38 H -31.1875 -3.77850 -6.95003
H17B_38 H -31.81062 -2.58606 -6.11864
H18A_38 H -33.74842 -3.84728 -5.74505
H18B_38 H -33.12502 -5.05538 -6.55255
H19A_38 H -33.81620 -2.57056 -7.69507
H19B_38 H -33.17773 -3.77110 -8.50666
H20A_38 H -35.73513 -3.89701 -7.26012
H20B_38 H -35.09872 -5.0821 -8.09353
H21A_38 H -35.854 -2.58706 -9.21729
H21B_38 H -35.22247 -3.77542 -10.04941
H22A_38 H -37.76832 -3.90881 -8.79090
H22B_38 H -37.13802 -5.08884 -9.63408
H23A_38 H -37.88737 -2.61050 -10.74537
H23B_38 H -37.32938 -3.84096 -11.57230
H23C_38 H -38.74514 -3.93665 -10.86778
S1_39 S -18.32572(4) -2.9786(2) 5.3658(2)
C1_39 C -15.6710(2) -3.2199(8) 4.6905(10)
C2_39 C -16.95895(19) -3.4536(7) 4.3861(10)
C3_39 C -17.3871(2) -4.0226(8) 3.1700(11)
C4_39 C -16.4068(2) -4.4243(7) 2.2514(10)
C5_39 C -15.0315(2) -4.2123(8) 2.5350(12)
C6_39 C -13.9899(2) -4.5863(7) 1.6550(10)
C7_39 C -12.6706(2) -4.3141(9) 1.9385(12)
C8_39 C -12.3007(2) -3.7065(8) 3.1590(13)
C9_39 C -13.2865(2) -3.3425(8) 4.0427(11)
C10_39 C -14.6515(2) -3.6001(9) 3.7817(13)
C11_39 C -18.81779(18) -4.0334(8) 3.0196(12)
C12_39 C -19.47160(19) -3.4459(8) 4.1398(10)
C13_39 C -20.82409(19) -3.2585(7) 4.1900(10)
C14_39 C -10.84577(19) -3.3865(8) 3.4083(11)
C15_39 C -10.24939(17) -4.0126(8) 4.6367(11)
C16_39 C -8.82522(18) -3.5901(8) 4.9313(12)
C17_39 C -8.20847(19) -4.1483(9) 6.1939(11)
C18_39 C -6.82071(19) -3.6325(9) 6.4945(13)
C19_39 C -6.2193(2) -4.1630(9) 7.7535(13)
C20_39 C -4.8230(2) -3.6039(9) 8.0236(13)
C21_39 C -4.1802(2) -4.1475(9) 9.2862(14)
C22_39 C -2.7841(2) -3.5970(11) 9.5594(14)
C23_39 C -2.13427(17) -4.1321(11) 10.7945(14)
H1_39 H -15.4444 -2.80527 5.5039
H4_39 H -16.66107 -4.83470 1.4447
H6_39 H -14.20390 -5.0312 0.85522
H7_39 H -12.00588 -4.53576 1.31138
H9_39 H -13.04934 -2.90967 4.84216
H13_39 H -21.22907 -2.85948 4.93896
H14A_39 H -10.32713 -3.6772 2.62929
H14B_39 H -10.75041 -2.41380 3.4792
H15A_39 H -10.27127 -4.9872 4.53292
H15B_39 H -10.80944 -3.78475 5.40764
H16A_39 H -8.26369 -3.85522 4.17333
H16B_39 H -8.80104 -2.61197 4.98535
H17A_39 H -8.7935 -3.93210 6.95003
H17B_39 H -8.17038 -5.12454 6.11864
H18A_39 H -6.23258 -3.86332 5.74505
H18B_39 H -6.85598 -2.65522 6.55255
H19A_39 H -6.16480 -5.14004 7.69507
H19B_39 H -6.80327 -3.93950 8.50666
H20A_39 H -4.24587 -3.81359 7.26012
H20B_39 H -4.88228 -2.6285 8.09353
H21A_39 H -4.127 -5.12354 9.21729
H21B_39 H -4.75853 -3.93518 10.04941
H22A_39 H -2.21268 -3.80179 8.79090
H22B_39 H -2.84298 -2.62176 9.63408
H23A_39 H -2.09363 -5.10010 10.74537
H23B_39 H -2.65162 -3.86964 11.57230
H23C_39 H -1.23586 -3.77395 10.86778
S1_40 S -22.08563(4) -4.7320(2) 0.7456(2)
C1_40 C -24.7403(2) -4.4907(8) 1.4209(10)
C2_40 C -23.45240(19) -4.2570(7) 1.7252(10)
C3_40 C -23.0243(2) -3.6880(8) 2.9414(11)
C4_40 C -24.0045(2) -3.2863(7) 3.8599(10)
C5_40 C -25.3799(2) -3.4983(8) 3.5764(12)
C6_40 C -26.4214(2) -3.1243(7) 4.4564(10)
C7_40 C -27.7408(2) -3.3965(9) 4.1728(12)
C8_40 C -28.1106(2) -4.0041(8) 2.9524(13)
C9_40 C -27.1249(2) -4.3681(8) 2.0687(11)
C10_40 C -25.7599(2) -4.1105(9) 2.3297(13)
C11_40 C -21.59356(18) -3.6772(8) 3.0917(12)
C12_40 C -20.93975(19) -4.2647(8) 1.9715(10)
C13_40 C -19.58726(19) -4.4521(7) 1.9214(10)
C14_40 C -29.56558(19) -4.3241(8) 2.7031(11)
C15_40 C -30.16196(17) -3.6980(8) 1.4747(11)
C16_40 C -31.58613(18) -4.1205(8) 1.1801(12)
C17_40 C -32.20288(19) -3.5623(9) -0.0825(11)
C18_40 C -33.59064(19) -4.0781(9) -0.3832(13)
C19_40 C -34.1921(2) -3.5476(9) -1.6421(13)
C20_40 C -35.5884(2) -4.1067(9) -1.9122(13)
C21_40 C -36.2311(2) -3.5631(9) -3.1749(14)
C22_40 C -37.6272(2) -4.1136(11) -3.4480(14)
C23_40 C -38.27708(17) -3.5785(11) -4.6831(14)
H1_40 H -24.9669 -4.90533 0.6075
H4_40 H -23.75028 -2.87590 4.6666
H6_40 H -26.20745 -2.6794 5.25614
H7_40 H -28.40547 -3.17484 4.79999
H9_40 H -27.36201 -4.80093 1.26921
H13_40 H -19.18228 -4.85112 1.17240
H14A_40 H -30.08422 -4.0334 3.48207
H14B_40 H -29.66094 -5.29680 2.6322
H15A_40 H -30.14008 -2.7234 1.57844
H15B_40 H -29.60191 -3.92585 0.70372
H16A_40 H -32.14766 -3.85538 1.93804
H16B_40 H -31.61031 -5.09863 1.12602
H17A_40 H -31.6179 -3.77850 -0.83866
H17B_40 H -32.24097 -2.58606 -0.00727
H18A_40 H -34.17876 -3.84728 0.36632
H18B_40 H -33.55537 -5.05538 -0.44118
H19A_40 H -34.24655 -2.57056 -1.58370
H19B_40 H -33.60808 -3.77110 -2.39529
H20A_40 H -36.16548 -3.89701 -1.14875
H20B_40 H -35.52907 -5.0821 -1.98216
H21A_40 H -36.284 -2.58706 -3.10592
H21B_40 H -35.65282 -3.77542 -3.93804
H22A_40 H -38.19867 -3.90881 -2.67953
H22B_40 H -37.56837 -5.08884 -3.52271
H23A_40 H -38.31772 -2.61050 -4.63400
H23B_40 H -37.75973 -3.84096 -5.46093
H23C_40 H -39.17549 -3.93665 -4.75642
S1_41 S -17.89537(4) 4.7320(2) -0.7456(2)
C1_41 C -15.2407(2) 4.4907(8) -1.4209(10)
C2_41 C -16.52860(19) 4.2570(7) -1.7252(10)
C3_41 C -16.9567(2) 3.6880(8) -2.9414(11)
C4_41 C -15.9765(2) 3.2863(7) -3.8599(10)
C5_41 C -14.6011(2) 3.4983(8) -3.5764(12)
C6_41 C -13.5596(2) 3.1243(7) -4.4564(10)
C7_41 C -12.2402(2) 3.3965(9) -4.1728(12)
C8_41 C -11.8704(2) 4.0041(8) -2.9524(13)
C9_41 C -12.8561(2) 4.3681(8) -2.0687(11)
C10_41 C -14.2211(2) 4.1105(9) -2.3297(13)
C11_41 C -18.38744(18) 3.6772(8) -3.0917(12)
C12_41 C -19.04125(19) 4.2647(8) -1.9715(10)
C13_41 C -20.39374(19) 4.4521(7) -1.9214(10)
C14_41 C -10.41542(19) 4.3241(8) -2.7031(11)
C15_41 C -9.81904(17) 3.6980(8) -1.4747(11)
C16_41 C -8.39487(18) 4.1205(8) -1.1801(12)
C17_41 C -7.77812(19) 3.5623(9) 0.0825(11)
C18_41 C -6.39036(19) 4.0781(9) 0.3832(13)
C19_41 C -5.7889(2) 3.5476(9) 1.6421(13)
C20_41 C -4.3926(2) 4.1067(9) 1.9122(13)
C21_41 C -3.7499(2) 3.5631(9) 3.1749(14)
C22_41 C -2.3538(2) 4.1136(11) 3.4480(14)
C23_41 C -1.70392(17) 3.5785(11) 4.6831(14)
H1_41 H -15.0141 4.90533 -0.6075
H4_41 H -16.23072 2.87590 -4.6666
H6_41 H -13.77355 2.6794 -5.25614
H7_41 H -11.57553 3.17484 -4.79999
H9_41 H -12.61899 4.80093 -1.26921
H13_41 H -20.79872 4.85112 -1.17240
H14A_41 H -9.89678 4.0334 -3.48207
H14B_41 H -10.32006 5.29680 -2.6322
H15A_41 H -9.84092 2.7234 -1.57844
H15B_41 H -10.37909 3.92585 -0.70372
H16A_41 H -7.83334 3.85538 -1.93804
H16B_41 H -8.37069 5.09863 -1.12602
H17A_41 H -8.3631 3.77850 0.83866
H17B_41 H -7.74003 2.58606 0.00727
H18A_41 H -5.80224 3.84728 -0.36632
H18B_41 H -6.42563 5.05538 0.44118
H19A_41 H -5.73445 2.57056 1.58370
H19B_41 H -6.37292 3.77110 2.39529
H20A_41 H -3.81552 3.89701 1.14875
H20B_41 H -4.45193 5.0821 1.98216
H21A_41 H -3.697 2.58706 3.10592
H21B_41 H -4.32818 3.77542 3.93804
H22A_41 H -1.78233 3.90881 2.67953
H22B_41 H -2.41263 5.08884 3.52271
H23A_41 H -1.66328 2.61050 4.63400
H23B_41 H -2.22127 3.84096 5.46093
H23C_41 H -0.80551 3.93665 4.75642
S1_42 S -21.65528(4) 2.9786(2) -5.3658(2)
C1_42 C -24.3100(2) 3.2199(8) -4.6905(10)
C2_42 C -23.02205(19) 3.4536(7) -4.3861(10)
C3_42 C -22.5939(2) 4.0226(8) -3.1700(11)
C4_42 C -23.5742(2) 4.4243(7) -2.2514(10)
C5_42 C -24.9495(2) 4.2123(8) -2.5350(12)
C6_42 C -25.9911(2) 4.5863(7) -1.6550(10)
C7_42 C -27.3104(2) 4.3141(9) -1.9385(12)
C8_42 C -27.6803(2) 3.7065(8) -3.1590(13)
C9_42 C -26.6945(2) 3.3425(8) -4.0427(11)
C10_42 C -25.3295(2) 3.6001(9) -3.7817(13)
C11_42 C -21.16321(18) 4.0334(8) -3.0196(12)
C12_42 C -20.50940(19) 3.4459(8) -4.1398(10)
C13_42 C -19.15691(19) 3.2585(7) -4.1900(10)
C14_42 C -29.13523(19) 3.3865(8) -3.4083(11)
C15_42 C -29.73161(17) 4.0126(8) -4.6367(11)
C16_42 C -31.15578(18) 3.5901(8) -4.9313(12)
C17_42 C -31.77253(19) 4.1483(9) -6.1939(11)
C18_42 C -33.16029(19) 3.6325(9) -6.4945(13)
C19_42 C -33.7617(2) 4.1630(9) -7.7535(13)
C20_42 C -35.1580(2) 3.6039(9) -8.0236(13)
C21_42 C -35.8008(2) 4.1475(9) -9.2862(14)
C22_42 C -37.1969(2) 3.5970(11) -9.5594(14)
C23_42 C -37.84673(17) 4.1321(11) -10.7945(14)
H1_42 H -24.5366 2.80527 -5.5039
H4_42 H -23.31993 4.83470 -1.4447
H6_42 H -25.77710 5.0312 -0.85522
H7_42 H -27.97512 4.53576 -1.31138
H9_42 H -26.93166 2.90967 -4.84216
H13_42 H -18.75193 2.85948 -4.93896
H14A_42 H -29.65387 3.6772 -2.62929
H14B_42 H -29.23059 2.41380 -3.4792
H15A_42 H -29.70973 4.9872 -4.53292
H15B_42 H -29.17156 3.78475 -5.40764
H16A_42 H -31.71731 3.85522 -4.17333
H16B_42 H -31.17996 2.61197 -4.98535
H17A_42 H -31.1875 3.93210 -6.95003
H17B_42 H -31.81062 5.12454 -6.11864
H18A_42 H -33.74842 3.86332 -5.74505
H18B_42 H -33.12502 2.65522 -6.55255
H19A_42 H -33.81620 5.14004 -7.69507
H19B_42 H -33.17773 3.93950 -8.50666
H20A_42 H -35.73513 3.81359 -7.26012
H20B_42 H -35.09872 2.6285 -8.09353
H21A_42 H -35.854 5.12354 -9.21729
H21B_42 H -35.22247 3.93518 -10.04941
H22A_42 H -37.76832 3.80179 -8.79090
H22B_42 H -37.13802 2.62176 -9.63408
H23A_42 H -37.88737 5.10010 -10.74537
H23B_42 H -37.32938 3.86964 -11.57230
H23C_42 H -38.74514 3.77395 -10.86778
S1_43 S -18.32572(4) 4.7320(2) 5.3658(2)
C1_43 C -15.6710(2) 4.4907(8) 4.6905(10)
C2_43 C -16.95895(19) 4.2570(7) 4.3861(10)
C3_43 C -17.3871(2) 3.6880(8) 3.1700(11)
C4_43 C -16.4068(2) 3.2863(7) 2.2514(10)
C5_43 C -15.0315(2) 3.4983(8) 2.5350(12)
C6_43 C -13.9899(2) 3.1243(7) 1.6550(10)
C7_43 C -12.6706(2) 3.3965(9) 1.9385(12)
C8_43 C -12.3007(2) 4.0041(8) 3.1590(13)
C9_43 C -13.2865(2) 4.3681(8) 4.0427(11)
C10_43 C -14.6515(2) 4.1105(9) 3.7817(13)
C11_43 C -18.81779(18) 3.6772(8) 3.0196(12)
C12_43 C -19.47160(19) 4.2647(8) 4.1398(10)
C13_43 C -20.82409(19) 4.4521(7) 4.1900(10)
C14_43 C -10.84577(19) 4.3241(8) 3.4083(11)
C15_43 C -10.24939(17) 3.6980(8) 4.6367(11)
C16_43 C -8.82522(18) 4.1205(8) 4.9313(12)
C17_43 C -8.20847(19) 3.5623(9) 6.1939(11)
C18_43 C -6.82071(19) 4.0781(9) 6.4945(13)
C19_43 C -6.2193(2) 3.5476(9) 7.7535(13)
C20_43 C -4.8230(2) 4.1067(9) 8.0236(13)
C21_43 C -4.1802(2) 3.5631(9) 9.2862(14)
C22_43 C -2.7841(2) 4.1136(11) 9.5594(14)
C23_43 C -2.13427(17) 3.5785(11) 10.7945(14)
H1_43 H -15.4444 4.90533 5.5039
H4_43 H -16.66107 2.87590 1.4447
H6_43 H -14.20390 2.6794 0.85522
H7_43 H -12.00588 3.17484 1.31138
H9_43 H -13.04934 4.80093 4.84216
H13_43 H -21.22907 4.85112 4.93896
H14A_43 H -10.32713 4.0334 2.62929
H14B_43 H -10.75041 5.29680 3.4792
H15A_43 H -10.27127 2.7234 4.53292
H15B_43 H -10.80944 3.92585 5.40764
H16A_43 H -8.26369 3.85538 4.17333
H16B_43 H -8.80104 5.09863 4.98535
H17A_43 H -8.7935 3.77850 6.95003
H17B_43 H -8.17038 2.58606 6.11864
H18A_43 H -6.23258 3.84728 5.74505
H18B_43 H -6.85598 5.05538 6.55255
H19A_43 H -6.16480 2.57056 7.69507
H19B_43 H -6.80327 3.77110 8.50666
H20A_43 H -4.24587 3.89701 7.26012
H20B_43 H -4.88228 5.0821 8.09353
H21A_43 H -4.127 2.58706 9.21729
H21B_43 H -4.75853 3.77542 10.04941
H22A_43 H -2.21268 3.90881 8.79090
H22B_43 H -2.84298 5.08884 9.63408
H23A_43 H -2.09363 2.61050 10.74537
H23B_43 H -2.65162 3.84096 11.57230
H23C_43 H -1.23586 3.93665 10.86778
S1_44 S -22.08563(4) 2.9786(2) 0.7456(2)
C1_44 C -24.7403(2) 3.2199(8) 1.4209(10)
C2_44 C -23.45240(19) 3.4536(7) 1.7252(10)
C3_44 C -23.0243(2) 4.0226(8) 2.9414(11)
C4_44 C -24.0045(2) 4.4243(7) 3.8599(10)
C5_44 C -25.3799(2) 4.2123(8) 3.5764(12)
C6_44 C -26.4214(2) 4.5863(7) 4.4564(10)
C7_44 C -27.7408(2) 4.3141(9) 4.1728(12)
C8_44 C -28.1106(2) 3.7065(8) 2.9524(13)
C9_44 C -27.1249(2) 3.3425(8) 2.0687(11)
C10_44 C -25.7599(2) 3.6001(9) 2.3297(13)
C11_44 C -21.59356(18) 4.0334(8) 3.0917(12)
C12_44 C -20.93975(19) 3.4459(8) 1.9715(10)
C13_44 C -19.58726(19) 3.2585(7) 1.9214(10)
C14_44 C -29.56558(19) 3.3865(8) 2.7031(11)
C15_44 C -30.16196(17) 4.0126(8) 1.4747(11)
C16_44 C -31.58613(18) 3.5901(8) 1.1801(12)
C17_44 C -32.20288(19) 4.1483(9) -0.0825(11)
C18_44 C -33.59064(19) 3.6325(9) -0.3832(13)
C19_44 C -34.1921(2) 4.1630(9) -1.6421(13)
C20_44 C -35.5884(2) 3.6039(9) -1.9122(13)
C21_44 C -36.2311(2) 4.1475(9) -3.1749(14)
C22_44 C -37.6272(2) 3.5970(11) -3.4480(14)
C23_44 C -38.27708(17) 4.1321(11) -4.6831(14)
H1_44 H -24.9669 2.80527 0.6075
H4_44 H -23.75028 4.83470 4.6666
H6_44 H -26.20745 5.0312 5.25614
H7_44 H -28.40547 4.53576 4.79999
H9_44 H -27.36201 2.90967 1.26921
H13_44 H -19.18228 2.85948 1.17240
H14A_44 H -30.08422 3.6772 3.48207
H14B_44 H -29.66094 2.41380 2.6322
H15A_44 H -30.14008 4.9872 1.57844
H15B_44 H -29.60191 3.78475 0.70372
H16A_44 H -32.14766 3.85522 1.93804
H16B_44 H -31.61031 2.61197 1.12602
H17A_44 H -31.6179 3.93210 -0.83866
H17B_44 H -32.24097 5.12454 -0.00727
H18A_44 H -34.17876 3.86332 0.36632
H18B_44 H -33.55537 2.65522 -0.44118
H19A_44 H -34.24655 5.14004 -1.58370
H19B_44 H -33.60808 3.93950 -2.39529
H20A_44 H -36.16548 3.81359 -1.14875
H20B_44 H -35.52907 2.6285 -1.98216
H21A_44 H -36.284 5.12354 -3.10592
H21B_44 H -35.65282 3.93518 -3.93804
H22A_44 H -38.19867 3.80179 -2.67953
H22B_44 H -37.56837 2.62176 -3.52271
H23A_44 H -38.31772 5.10010 -4.63400
H23B_44 H -37.75973 3.86964 -5.46093
H23C_44 H -39.17549 3.77395 -4.75642
S1_45 S 22.08563(4) -2.9786(2) -0.7456(2)
C1_45 C 24.7403(2) -3.2199(8) -1.4209(10)
C2_45 C 23.45240(19) -3.4536(7) -1.7252(10)
C3_45 C 23.0243(2) -4.0226(8) -2.9414(11)
C4_45 C 24.0045(2) -4.4243(7) -3.8599(10)
C5_45 C 25.3799(2) -4.2123(8) -3.5764(12)
C6_45 C 26.4214(2) -4.5863(7) -4.4564(10)
C7_45 C 27.7408(2) -4.3141(9) -4.1728(12)
C8_45 C 28.1106(2) -3.7065(8) -2.9524(13)
C9_45 C 27.1249(2) -3.3425(8) -2.0687(11)
C10_45 C 25.7599(2) -3.6001(9) -2.3297(13)
C11_45 C 21.59356(18) -4.0334(8) -3.0917(12)
C12_45 C 20.93975(19) -3.4459(8) -1.9715(10)
C13_45 C 19.58726(19) -3.2585(7) -1.9214(10)
C14_45 C 29.56558(19) -3.3865(8) -2.7031(11)
C15_45 C 30.16196(17) -4.0126(8) -1.4747(11)
C16_45 C 31.58613(18) -3.5901(8) -1.1801(12)
C17_45 C 32.20288(19) -4.1483(9) 0.0825(11)
C18_45 C 33.59064(19) -3.6325(9) 0.3832(13)
C19_45 C 34.1921(2) -4.1630(9) 1.6421(13)
C20_45 C 35.5884(2) -3.6039(9) 1.9122(13)
C21_45 C 36.2311(2) -4.1475(9) 3.1749(14)
C22_45 C 37.6272(2) -3.5970(11) 3.4480(14)
C23_45 C 38.27708(17) -4.1321(11) 4.6831(14)
H1_45 H 24.9669 -2.80527 -0.6075
H4_45 H 23.75028 -4.83470 -4.6666
H6_45 H 26.20745 -5.0312 -5.25614
H7_45 H 28.40547 -4.53576 -4.79999
H9_45 H 27.36201 -2.90967 -1.26921
H13_45 H 19.18228 -2.85948 -1.17240
H14A_45 H 30.08422 -3.6772 -3.48207
H14B_45 H 29.66094 -2.41380 -2.6322
H15A_45 H 30.14008 -4.9872 -1.57844
H15B_45 H 29.60191 -3.78475 -0.70372
H16A_45 H 32.14766 -3.85522 -1.93804
H16B_45 H 31.61031 -2.61197 -1.12602
H17A_45 H 31.6179 -3.93210 0.83866
H17B_45 H 32.24097 -5.12454 0.00727
H18A_45 H 34.17876 -3.86332 -0.36632
H18B_45 H 33.55537 -2.65522 0.44118
H19A_45 H 34.24655 -5.14004 1.58370
H19B_45 H 33.60808 -3.93950 2.39529
H20A_45 H 36.16548 -3.81359 1.14875
H20B_45 H 35.52907 -2.6285 1.98216
H21A_45 H 36.284 -5.12354 3.10592
H21B_45 H 35.65282 -3.93518 3.93804
H22A_45 H 38.19867 -3.80179 2.67953
H22B_45 H 37.56837 -2.62176 3.52271
H23A_45 H 38.31772 -5.10010 4.63400
H23B_45 H 37.75973 -3.86964 5.46093
H23C_45 H 39.17549 -3.77395 4.75642
S1_46 S 18.32572(4) -4.7320(2) -5.3658(2)
C1_46 C 15.6710(2) -4.4907(8) -4.6905(10)
C2_46 C 16.95895(19) -4.2570(7) -4.3861(10)
C3_46 C 17.3871(2) -3.6880(8) -3.1700(11)
C4_46 C 16.4068(2) -3.2863(7) -2.2514(10)
C5_46 C 15.0315(2) -3.4983(8) -2.5350(12)
C6_46 C 13.9899(2) -3.1243(7) -1.6550(10)
C7_46 C 12.6706(2) -3.3965(9) -1.9385(12)
C8_46 C 12.3007(2) -4.0041(8) -3.1590(13)
C9_46 C 13.2865(2) -4.3681(8) -4.0427(11)
C10_46 C 14.6515(2) -4.1105(9) -3.7817(13)
C11_46 C 18.81779(18) -3.6772(8) -3.0196(12)
C12_46 C 19.47160(19) -4.2647(8) -4.1398(10)
C13_46 C 20.82409(19) -4.4521(7) -4.1900(10)
C14_46 C 10.84577(19) -4.3241(8) -3.4083(11)
C15_46 C 10.24939(17) -3.6980(8) -4.6367(11)
C16_46 C 8.82522(18) -4.1205(8) -4.9313(12)
C17_46 C 8.20847(19) -3.5623(9) -6.1939(11)
C18_46 C 6.82071(19) -4.0781(9) -6.4945(13)
C19_46 C 6.2193(2) -3.5476(9) -7.7535(13)
C20_46 C 4.8230(2) -4.1067(9) -8.0236(13)
C21_46 C 4.1802(2) -3.5631(9) -9.2862(14)
C22_46 C 2.7841(2) -4.1136(11) -9.5594(14)
C23_46 C 2.13427(17) -3.5785(11) -10.7945(14)
H1_46 H 15.4444 -4.90533 -5.5039
H4_46 H 16.66107 -2.87590 -1.4447
H6_46 H 14.20390 -2.6794 -0.85522
H7_46 H 12.00588 -3.17484 -1.31138
H9_46 H 13.04934 -4.80093 -4.84216
H13_46 H 21.22907 -4.85112 -4.93896
H14A_46 H 10.32713 -4.0334 -2.62929
H14B_46 H 10.75041 -5.29680 -3.4792
H15A_46 H 10.27127 -2.7234 -4.53292
H15B_46 H 10.80944 -3.92585 -5.40764
H16A_46 H 8.26369 -3.85538 -4.17333
H16B_46 H 8.80104 -5.09863 -4.98535
H17A_46 H 8.7935 -3.77850 -6.95003
H17B_46 H 8.17038 -2.58606 -6.11864
H18A_46 H 6.23258 -3.84728 -5.74505
H18B_46 H 6.85598 -5.05538 -6.55255
H19A_46 H 6.16480 -2.57056 -7.69507
H19B_46 H 6.80327 -3.77110 -8.50666
H20A_46 H 4.24587 -3.89701 -7.26012
H20B_46 H 4.88228 -5.0821 -8.09353
H21A_46 H 4.127 -2.58706 -9.21729
H21B_46 H 4.75853 -3.77542 -10.04941
H22A_46 H 2.21268 -3.90881 -8.79090
H22B_46 H 2.84298 -5.08884 -9.63408
H23A_46 H 2.09363 -2.61050 -10.74537
H23B_46 H 2.65162 -3.84096 -11.57230
H23C_46 H 1.23586 -3.93665 -10.86778
S1_47 S 21.65528(4) -2.9786(2) 5.3658(2)
C1_47 C 24.3100(2) -3.2199(8) 4.6905(10)
C2_47 C 23.02205(19) -3.4536(7) 4.3861(10)
C3_47 C 22.5939(2) -4.0226(8) 3.1700(11)
C4_47 C 23.5742(2) -4.4243(7) 2.2514(10)
C5_47 C 24.9495(2) -4.2123(8) 2.5350(12)
C6_47 C 25.9911(2) -4.5863(7) 1.6550(10)
C7_47 C 27.3104(2) -4.3141(9) 1.9385(12)
C8_47 C 27.6803(2) -3.7065(8) 3.1590(13)
C9_47 C 26.6945(2) -3.3425(8) 4.0427(11)
C10_47 C 25.3295(2) -3.6001(9) 3.7817(13)
C11_47 C 21.16321(18) -4.0334(8) 3.0196(12)
C12_47 C 20.50940(19) -3.4459(8) 4.1398(10)
C13_47 C 19.15691(19) -3.2585(7) 4.1900(10)
C14_47 C 29.13523(19) -3.3865(8) 3.4083(11)
C15_47 C 29.73161(17) -4.0126(8) 4.6367(11)
C16_47 C 31.15578(18) -3.5901(8) 4.9313(12)
C17_47 C 31.77253(19) -4.1483(9) 6.1939(11)
C18_47 C 33.16029(19) -3.6325(9) 6.4945(13)
C19_47 C 33.7617(2) -4.1630(9) 7.7535(13)
C20_47 C 35.1580(2) -3.6039(9) 8.0236(13)
C21_47 C 35.8008(2) -4.1475(9) 9.2862(14)
C22_47 C 37.1969(2) -3.5970(11) 9.5594(14)
C23_47 C 37.84673(17) -4.1321(11) 10.7945(14)
H1_47 H 24.5366 -2.80527 5.5039
H4_47 H 23.31993 -4.83470 1.4447
H6_47 H 25.77710 -5.0312 0.85522
H7_47 H 27.97512 -4.53576 1.31138
H9_47 H 26.93166 -2.90967 4.84216
H13_47 H 18.75193 -2.85948 4.93896
H14A_47 H 29.65387 -3.6772 2.62929
H14B_47 H 29.23059 -2.41380 3.4792
H15A_47 H 29.70973 -4.9872 4.53292
H15B_47 H 29.17156 -3.78475 5.40764
H16A_47 H 31.71731 -3.85522 4.17333
H16B_47 H 31.17996 -2.61197 4.98535
H17A_47 H 31.1875 -3.93210 6.95003
H17B_47 H 31.81062 -5.12454 6.11864
H18A_47 H 33.74842 -3.86332 5.74505
H18B_47 H 33.12502 -2.65522 6.55255
H19A_47 H 33.81620 -5.14004 7.69507
H19B_47 H 33.17773 -3.93950 8.50666
H20A_47 H 35.73513 -3.81359 7.26012
H20B_47 H 35.09872 -2.6285 8.09353
H21A_47 H 35.854 -5.12354 9.21729
H21B_47 H 35.22247 -3.93518 10.04941
H22A_47 H 37.76832 -3.80179 8.79090
H22B_47 H 37.13802 -2.62176 9.63408
H23A_47 H 37.88737 -5.10010 10.74537
H23B_47 H 37.32938 -3.86964 11.57230
H23C_47 H 38.74514 -3.77395 10.86778
S1_48 S 17.89537(4) -4.7320(2) 0.7456(2)
C1_48 C 15.2407(2) -4.4907(8) 1.4209(10)
C2_48 C 16.52860(19) -4.2570(7) 1.7252(10)
C3_48 C 16.9567(2) -3.6880(8) 2.9414(11)
C4_48 C 15.9765(2) -3.2863(7) 3.8599(10)
C5_48 C 14.6011(2) -3.4983(8) 3.5764(12)
C6_48 C 13.5596(2) -3.1243(7) 4.4564(10)
C7_48 C 12.2402(2) -3.3965(9) 4.1728(12)
C8_48 C 11.8704(2) -4.0041(8) 2.9524(13)
C9_48 C 12.8561(2) -4.3681(8) 2.0687(11)
C10_48 C 14.2211(2) -4.1105(9) 2.3297(13)
C11_48 C 18.38744(18) -3.6772(8) 3.0917(12)
C12_48 C 19.04125(19) -4.2647(8) 1.9715(10)
C13_48 C 20.39374(19) -4.4521(7) 1.9214(10)
C14_48 C 10.41542(19) -4.3241(8) 2.7031(11)
C15_48 C 9.81904(17) -3.6980(8) 1.4747(11)
C16_48 C 8.39487(18) -4.1205(8) 1.1801(12)
C17_48 C 7.77812(19) -3.5623(9) -0.0825(11)
C18_48 C 6.39036(19) -4.0781(9) -0.3832(13)
C19_48 C 5.7889(2) -3.5476(9) -1.6421(13)
C20_48 C 4.3926(2) -4.1067(9) -1.9122(13)
C21_48 C 3.7499(2) -3.5631(9) -3.1749(14)
C22_48 C 2.3538(2) -4.1136(11) -3.4480(14)
C23_48 C 1.70392(17) -3.5785(11) -4.6831(14)
H1_48 H 15.0141 -4.90533 0.6075
H4_48 H 16.23072 -2.87590 4.6666
H6_48 H 13.77355 -2.6794 5.25614
H7_48 H 11.57553 -3.17484 4.79999
H9_48 H 12.61899 -4.80093 1.26921
H13_48 H 20.79872 -4.85112 1.17240
H14A_48 H 9.89678 -4.0334 3.48207
H14B_48 H 10.32006 -5.29680 2.6322
H15A_48 H 9.84092 -2.7234 1.57844
H15B_48 H 10.37909 -3.92585 0.70372
H16A_48 H 7.83334 -3.85538 1.93804
H16B_48 H 8.37069 -5.09863 1.12602
H17A_48 H 8.3631 -3.77850 -0.83866
H17B_48 H 7.74003 -2.58606 -0.00727
H18A_48 H 5.80224 -3.84728 0.36632
H18B_48 H 6.42563 -5.05538 -0.44118
H19A_48 H 5.73445 -2.57056 -1.58370
H19B_48 H 6.37292 -3.77110 -2.39529
H20A_48 H 3.81552 -3.89701 -1.14875
H20B_48 H 4.45193 -5.0821 -1.98216
H21A_48 H 3.697 -2.58706 -3.10592
H21B_48 H 4.32818 -3.77542 -3.93804
H22A_48 H 1.78233 -3.90881 -2.67953
H22B_48 H 2.41263 -5.08884 -3.52271
H23A_48 H 1.66328 -2.61050 -4.63400
H23B_48 H 2.22127 -3.84096 -5.46093
H23C_48 H 0.80551 -3.93665 -4.75642
S1_49 S 22.08563(4) 4.7320(2) -0.7456(2)
C1_49 C 24.7403(2) 4.4907(8) -1.4209(10)
C2_49 C 23.45240(19) 4.2570(7) -1.7252(10)
C3_49 C 23.0243(2) 3.6880(8) -2.9414(11)
C4_49 C 24.0045(2) 3.2863(7) -3.8599(10)
C5_49 C 25.3799(2) 3.4983(8) -3.5764(12)
C6_49 C 26.4214(2) 3.1243(7) -4.4564(10)
C7_49 C 27.7408(2) 3.3965(9) -4.1728(12)
C8_49 C 28.1106(2) 4.0041(8) -2.9524(13)
C9_49 C 27.1249(2) 4.3681(8) -2.0687(11)
C10_49 C 25.7599(2) 4.1105(9) -2.3297(13)
C11_49 C 21.59356(18) 3.6772(8) -3.0917(12)
C12_49 C 20.93975(19) 4.2647(8) -1.9715(10)
C13_49 C 19.58726(19) 4.4521(7) -1.9214(10)
C14_49 C 29.56558(19) 4.3241(8) -2.7031(11)
C15_49 C 30.16196(17) 3.6980(8) -1.4747(11)
C16_49 C 31.58613(18) 4.1205(8) -1.1801(12)
C17_49 C 32.20288(19) 3.5623(9) 0.0825(11)
C18_49 C 33.59064(19) 4.0781(9) 0.3832(13)
C19_49 C 34.1921(2) 3.5476(9) 1.6421(13)
C20_49 C 35.5884(2) 4.1067(9) 1.9122(13)
C21_49 C 36.2311(2) 3.5631(9) 3.1749(14)
C22_49 C 37.6272(2) 4.1136(11) 3.4480(14)
C23_49 C 38.27708(17) 3.5785(11) 4.6831(14)
H1_49 H 24.9669 4.90533 -0.6075
H4_49 H 23.75028 2.87590 -4.6666
H6_49 H 26.20745 2.6794 -5.25614
H7_49 H 28.40547 3.17484 -4.79999
H9_49 H 27.36201 4.80093 -1.26921
H13_49 H 19.18228 4.85112 -1.17240
H14A_49 H 30.08422 4.0334 -3.48207
H14B_49 H 29.66094 5.29680 -2.6322
H15A_49 H 30.14008 2.7234 -1.57844
H15B_49 H 29.60191 3.92585 -0.70372
H16A_49 H 32.14766 3.85538 -1.93804
H16B_49 H 31.61031 5.09863 -1.12602
H17A_49 H 31.6179 3.77850 0.83866
H17B_49 H 32.24097 2.58606 0.00727
H18A_49 H 34.17876 3.84728 -0.36632
H18B_49 H 33.55537 5.05538 0.44118
H19A_49 H 34.24655 2.57056 1.58370
H19B_49 H 33.60808 3.77110 2.39529
H20A_49 H 36.16548 3.89701 1.14875
H20B_49 H 35.52907 5.0821 1.98216
H21A_49 H 36.284 2.58706 3.10592
H21B_49 H 35.65282 3.77542 3.93804
H22A_49 H 38.19867 3.90881 2.67953
H22B_49 H 37.56837 5.08884 3.52271
H23A_49 H 38.31772 2.61050 4.63400
H23B_49 H 37.75973 3.84096 5.46093
H23C_49 H 39.17549 3.93665 4.75642
S1_50 S 18.32572(4) 2.9786(2) -5.3658(2)
C1_50 C 15.6710(2) 3.2199(8) -4.6905(10)
C2_50 C 16.95895(19) 3.4536(7) -4.3861(10)
C3_50 C 17.3871(2) 4.0226(8) -3.1700(11)
C4_50 C 16.4068(2) 4.4243(7) -2.2514(10)
C5_50 C 15.0315(2) 4.2123(8) -2.5350(12)
C6_50 C 13.9899(2) 4.5863(7) -1.6550(10)
C7_50 C 12.6706(2) 4.3141(9) -1.9385(12)
C8_50 C 12.3007(2) 3.7065(8) -3.1590(13)
C9_50 C 13.2865(2) 3.3425(8) -4.0427(11)
C10_50 C 14.6515(2) 3.6001(9) -3.7817(13)
C11_50 C 18.81779(18) 4.0334(8) -3.0196(12)
C12_50 C 19.47160(19) 3.4459(8) -4.1398(10)
C13_50 C 20.82409(19) 3.2585(7) -4.1900(10)
C14_50 C 10.84577(19) 3.3865(8) -3.4083(11)
C15_50 C 10.24939(17) 4.0126(8) -4.6367(11)
C16_50 C 8.82522(18) 3.5901(8) -4.9313(12)
C17_50 C 8.20847(19) 4.1483(9) -6.1939(11)
C18_50 C 6.82071(19) 3.6325(9) -6.4945(13)
C19_50 C 6.2193(2) 4.1630(9) -7.7535(13)
C20_50 C 4.8230(2) 3.6039(9) -8.0236(13)
C21_50 C 4.1802(2) 4.1475(9) -9.2862(14)
C22_50 C 2.7841(2) 3.5970(11) -9.5594(14)
C23_50 C 2.13427(17) 4.1321(11) -10.7945(14)
H1_50 H 15.4444 2.80527 -5.5039
H4_50 H 16.66107 4.83470 -1.4447
H6_50 H 14.20390 5.0312 -0.85522
H7_50 H 12.00588 4.53576 -1.31138
H9_50 H 13.04934 2.90967 -4.84216
H13_50 H 21.22907 2.85948 -4.93896
H14A_50 H 10.32713 3.6772 -2.62929
H14B_50 H 10.75041 2.41380 -3.4792
H15A_50 H 10.27127 4.9872 -4.53292
H15B_50 H 10.80944 3.78475 -5.40764
H16A_50 H 8.26369 3.85522 -4.17333
H16B_50 H 8.80104 2.61197 -4.98535
H17A_50 H 8.7935 3.93210 -6.95003
H17B_50 H 8.17038 5.12454 -6.11864
H18A_50 H 6.23258 3.86332 -5.74505
H18B_50 H 6.85598 2.65522 -6.55255
H19A_50 H 6.16480 5.14004 -7.69507
H19B_50 H 6.80327 3.93950 -8.50666
H20A_50 H 4.24587 3.81359 -7.26012
H20B_50 H 4.88228 2.6285 -8.09353
H21A_50 H 4.127 5.12354 -9.21729
H21B_50 H 4.75853 3.93518 -10.04941
H22A_50 H 2.21268 3.80179 -8.79090
H22B_50 H 2.84298 2.62176 -9.63408
H23A_50 H 2.09363 5.10010 -10.74537
H23B_50 H 2.65162 3.86964 -11.57230
H23C_50 H 1.23586 3.77395 -10.86778
S1_51 S 21.65528(4) 4.7320(2) 5.3658(2)
C1_51 C 24.3100(2) 4.4907(8) 4.6905(10)
C2_51 C 23.02205(19) 4.2570(7) 4.3861(10)
C3_51 C 22.5939(2) 3.6880(8) 3.1700(11)
C4_51 C 23.5742(2) 3.2863(7) 2.2514(10)
C5_51 C 24.9495(2) 3.4983(8) 2.5350(12)
C6_51 C 25.9911(2) 3.1243(7) 1.6550(10)
C7_51 C 27.3104(2) 3.3965(9) 1.9385(12)
C8_51 C 27.6803(2) 4.0041(8) 3.1590(13)
C9_51 C 26.6945(2) 4.3681(8) 4.0427(11)
C10_51 C 25.3295(2) 4.1105(9) 3.7817(13)
C11_51 C 21.16321(18) 3.6772(8) 3.0196(12)
C12_51 C 20.50940(19) 4.2647(8) 4.1398(10)
C13_51 C 19.15691(19) 4.4521(7) 4.1900(10)
C14_51 C 29.13523(19) 4.3241(8) 3.4083(11)
C15_51 C 29.73161(17) 3.6980(8) 4.6367(11)
C16_51 C 31.15578(18) 4.1205(8) 4.9313(12)
C17_51 C 31.77253(19) 3.5623(9) 6.1939(11)
C18_51 C 33.16029(19) 4.0781(9) 6.4945(13)
C19_51 C 33.7617(2) 3.5476(9) 7.7535(13)
C20_51 C 35.1580(2) 4.1067(9) 8.0236(13)
C21_51 C 35.8008(2) 3.5631(9) 9.2862(14)
C22_51 C 37.1969(2) 4.1136(11) 9.5594(14)
C23_51 C 37.84673(17) 3.5785(11) 10.7945(14)
H1_51 H 24.5366 4.90533 5.5039
H4_51 H 23.31993 2.87590 1.4447
H6_51 H 25.77710 2.6794 0.85522
H7_51 H 27.97512 3.17484 1.31138
H9_51 H 26.93166 4.80093 4.84216
H13_51 H 18.75193 4.85112 4.93896
H14A_51 H 29.65387 4.0334 2.62929
H14B_51 H 29.23059 5.29680 3.4792
H15A_51 H 29.70973 2.7234 4.53292
H15B_51 H 29.17156 3.92585 5.40764
H16A_51 H 31.71731 3.85538 4.17333
H16B_51 H 31.17996 5.09863 4.98535
H17A_51 H 31.1875 3.77850 6.95003
H17B_51 H 31.81062 2.58606 6.11864
H18A_51 H 33.74842 3.84728 5.74505
H18B_51 H 33.12502 5.05538 6.55255
H19A_51 H 33.81620 2.57056 7.69507
H19B_51 H 33.17773 3.77110 8.50666
H20A_51 H 35.73513 3.89701 7.26012
H20B_51 H 35.09872 5.0821 8.09353
H21A_51 H 35.854 2.58706 9.21729
H21B_51 H 35.22247 3.77542 10.04941
H22A_51 H 37.76832 3.90881 8.79090
H22B_51 H 37.13802 5.08884 9.63408
H23A_51 H 37.88737 2.61050 10.74537
H23B_51 H 37.32938 3.84096 11.57230
H23C_51 H 38.74514 3.93665 10.86778
S1_52 S 17.89537(4) 2.9786(2) 0.7456(2)
C1_52 C 15.2407(2) 3.2199(8) 1.4209(10)
C2_52 C 16.52860(19) 3.4536(7) 1.7252(10)
C3_52 C 16.9567(2) 4.0226(8) 2.9414(11)
C4_52 C 15.9765(2) 4.4243(7) 3.8599(10)
C5_52 C 14.6011(2) 4.2123(8) 3.5764(12)
C6_52 C 13.5596(2) 4.5863(7) 4.4564(10)
C7_52 C 12.2402(2) 4.3141(9) 4.1728(12)
C8_52 C 11.8704(2) 3.7065(8) 2.9524(13)
C9_52 C 12.8561(2) 3.3425(8) 2.0687(11)
C10_52 C 14.2211(2) 3.6001(9) 2.3297(13)
C11_52 C 18.38744(18) 4.0334(8) 3.0917(12)
C12_52 C 19.04125(19) 3.4459(8) 1.9715(10)
C13_52 C 20.39374(19) 3.2585(7) 1.9214(10)
C14_52 C 10.41542(19) 3.3865(8) 2.7031(11)
C15_52 C 9.81904(17) 4.0126(8) 1.4747(11)
C16_52 C 8.39487(18) 3.5901(8) 1.1801(12)
C17_52 C 7.77812(19) 4.1483(9) -0.0825(11)
C18_52 C 6.39036(19) 3.6325(9) -0.3832(13)
C19_52 C 5.7889(2) 4.1630(9) -1.6421(13)
C20_52 C 4.3926(2) 3.6039(9) -1.9122(13)
C21_52 C 3.7499(2) 4.1475(9) -3.1749(14)
C22_52 C 2.3538(2) 3.5970(11) -3.4480(14)
C23_52 C 1.70392(17) 4.1321(11) -4.6831(14)
H1_52 H 15.0141 2.80527 0.6075
H4_52 H 16.23072 4.83470 4.6666
H6_52 H 13.77355 5.0312 5.25614
H7_52 H 11.57553 4.53576 4.79999
H9_52 H 12.61899 2.90967 1.26921
H13_52 H 20.79872 2.85948 1.17240
H14A_52 H 9.89678 3.6772 3.48207
H14B_52 H 10.32006 2.41380 2.6322
H15A_52 H 9.84092 4.9872 1.57844
H15B_52 H 10.37909 3.78475 0.70372
H16A_52 H 7.83334 3.85522 1.93804
H16B_52 H 8.37069 2.61197 1.12602
H17A_52 H 8.3631 3.93210 -0.83866
H17B_52 H 7.74003 5.12454 -0.00727
H18A_52 H 5.80224 3.86332 0.36632
H18B_52 H 6.42563 2.65522 -0.44118
H19A_52 H 5.73445 5.14004 -1.58370
H19B_52 H 6.37292 3.93950 -2.39529
H20A_52 H 3.81552 3.81359 -1.14875
H20B_52 H 4.45193 2.6285 -1.98216
H21A_52 H 3.697 5.12354 -3.10592
H21B_52 H 4.32818 3.93518 -3.93804
H22A_52 H 1.78233 3.80179 -2.67953
H22B_52 H 2.41263 2.62176 -3.52271
H23A_52 H 1.66328 5.10010 -4.63400
H23B_52 H 2.22127 3.86964 -5.46093
H23C_52 H 0.80551 3.77395 -4.75642
loop_
_geom_bond_atom_site_label_1
_geom_bond_atom_site_label_2
_geom_bond_site_symmetry_1
_geom_bond_site_symmetry_2
S1 C2 1_555 1_555
S1 C12 1_555 1_555
C1 C2 1_555 1_555
C1 C10 1_555 1_555
C1 H1 1_555 1_555
C2 C3 1_555 1_555
C3 C4 1_555 1_555
C3 C11 1_555 1_555
C4 C5 1_555 1_555
C4 H4 1_555 1_555
C5 C6 1_555 1_555
C5 C10 1_555 1_555
C6 C7 1_555 1_555
C6 H6 1_555 1_555
C7 C8 1_555 1_555
C7 H7 1_555 1_555
C8 C9 1_555 1_555
C8 C14 1_555 1_555
C9 C10 1_555 1_555
C9 H9 1_555 1_555
C11 C12 1_555 1_555
C11 C13_2 1_555 1_555
C12 C13 1_555 1_555
C13 H13 1_555 1_555
C13 C11_2 1_555 1_555
C14 C15 1_555 1_555
C14 H14A 1_555 1_555
C14 H14B 1_555 1_555
C15 C16 1_555 1_555
C15 H15A 1_555 1_555
C15 H15B 1_555 1_555
C16 C17 1_555 1_555
C16 H16A 1_555 1_555
C16 H16B 1_555 1_555
C17 C18 1_555 1_555
C17 H17A 1_555 1_555
C17 H17B 1_555 1_555
C18 C19 1_555 1_555
C18 H18A 1_555 1_555
C18 H18B 1_555 1_555
C19 C20 1_555 1_555
C19 H19A 1_555 1_555
C19 H19B 1_555 1_555
C20 C21 1_555 1_555
C20 H20A 1_555 1_555
C20 H20B 1_555 1_555
C21 C22 1_555 1_555
C21 H21A 1_555 1_555
C21 H21B 1_555 1_555
C22 C23 1_555 1_555
C22 H22A 1_555 1_555
C22 H22B 1_555 1_555
C23 H23A 1_555 1_555
C23 H23B 1_555 1_555
C23 H23C 1_555 1_555
S1_2 C2_2 1_555 1_555
S1_2 C12_2 1_555 1_555
C1_2 C2_2 1_555 1_555
C1_2 C10_2 1_555 1_555
C1_2 H1_2 1_555 1_555
C2_2 C3_2 1_555 1_555
C3_2 C4_2 1_555 1_555
C3_2 C11_2 1_555 1_555
C4_2 C5_2 1_555 1_555
C4_2 H4_2 1_555 1_555
C5_2 C6_2 1_555 1_555
C5_2 C10_2 1_555 1_555
C6_2 C7_2 1_555 1_555
C6_2 H6_2 1_555 1_555
C7_2 C8_2 1_555 1_555
C7_2 H7_2 1_555 1_555
C8_2 C9_2 1_555 1_555
C8_2 C14_2 1_555 1_555
C9_2 C10_2 1_555 1_555
C9_2 H9_2 1_555 1_555
C11_2 C12_2 1_555 1_555
C12_2 C13_2 1_555 1_555
C13_2 H13_2 1_555 1_555
C14_2 C15_2 1_555 1_555
C14_2 H14A_2 1_555 1_555
C14_2 H14B_2 1_555 1_555
C15_2 C16_2 1_555 1_555
C15_2 H15A_2 1_555 1_555
C15_2 H15B_2 1_555 1_555
C16_2 C17_2 1_555 1_555
C16_2 H16A_2 1_555 1_555
C16_2 H16B_2 1_555 1_555
C17_2 C18_2 1_555 1_555
C17_2 H17A_2 1_555 1_555
C17_2 H17B_2 1_555 1_555
C18_2 C19_2 1_555 1_555
C18_2 H18A_2 1_555 1_555
C18_2 H18B_2 1_555 1_555
C19_2 C20_2 1_555 1_555
C19_2 H19A_2 1_555 1_555
C19_2 H19B_2 1_555 1_555
C20_2 C21_2 1_555 1_555
C20_2 H20A_2 1_555 1_555
C20_2 H20B_2 1_555 1_555
C21_2 C22_2 1_555 1_555
C21_2 H21A_2 1_555 1_555
C21_2 H21B_2 1_555 1_555
C22_2 C23_2 1_555 1_555
C22_2 H22A_2 1_555 1_555
C22_2 H22B_2 1_555 1_555
C23_2 H23A_2 1_555 1_555
C23_2 H23B_2 1_555 1_555
C23_2 H23C_2 1_555 1_555
S1_3 C2_3 1_555 1_555
S1_3 C12_3 1_555 1_555
C1_3 C2_3 1_555 1_555
C1_3 C10_3 1_555 1_555
C1_3 H1_3 1_555 1_555
C2_3 C3_3 1_555 1_555
C3_3 C4_3 1_555 1_555
C3_3 C11_3 1_555 1_555
C4_3 C5_3 1_555 1_555
C4_3 H4_3 1_555 1_555
C5_3 C6_3 1_555 1_555
C5_3 C10_3 1_555 1_555
C6_3 C7_3 1_555 1_555
C6_3 H6_3 1_555 1_555
C7_3 C8_3 1_555 1_555
C7_3 H7_3 1_555 1_555
C8_3 C9_3 1_555 1_555
C8_3 C14_3 1_555 1_555
C9_3 C10_3 1_555 1_555
C9_3 H9_3 1_555 1_555
C11_3 C12_3 1_555 1_555
C11_3 C13_4 1_555 1_555
C12_3 C13_3 1_555 1_555
C13_3 H13_3 1_555 1_555
C13_3 C11_4 1_555 1_555
C14_3 C15_3 1_555 1_555
C14_3 H14A_3 1_555 1_555
C14_3 H14B_3 1_555 1_555
C15_3 C16_3 1_555 1_555
C15_3 H15A_3 1_555 1_555
C15_3 H15B_3 1_555 1_555
C16_3 C17_3 1_555 1_555
C16_3 H16A_3 1_555 1_555
C16_3 H16B_3 1_555 1_555
C17_3 C18_3 1_555 1_555
C17_3 H17A_3 1_555 1_555
C17_3 H17B_3 1_555 1_555
C18_3 C19_3 1_555 1_555
C18_3 H18A_3 1_555 1_555
C18_3 H18B_3 1_555 1_555
C19_3 C20_3 1_555 1_555
C19_3 H19A_3 1_555 1_555
C19_3 H19B_3 1_555 1_555
C20_3 C21_3 1_555 1_555
C20_3 H20A_3 1_555 1_555
C20_3 H20B_3 1_555 1_555
C21_3 C22_3 1_555 1_555
C21_3 H21A_3 1_555 1_555
C21_3 H21B_3 1_555 1_555
C22_3 C23_3 1_555 1_555
C22_3 H22A_3 1_555 1_555
C22_3 H22B_3 1_555 1_555
C23_3 H23A_3 1_555 1_555
C23_3 H23B_3 1_555 1_555
C23_3 H23C_3 1_555 1_555
S1_4 C2_4 1_555 1_555
S1_4 C12_4 1_555 1_555
C1_4 C2_4 1_555 1_555
C1_4 C10_4 1_555 1_555
C1_4 H1_4 1_555 1_555
C2_4 C3_4 1_555 1_555
C3_4 C4_4 1_555 1_555
C3_4 C11_4 1_555 1_555
C4_4 C5_4 1_555 1_555
C4_4 H4_4 1_555 1_555
C5_4 C6_4 1_555 1_555
C5_4 C10_4 1_555 1_555
C6_4 C7_4 1_555 1_555
C6_4 H6_4 1_555 1_555
C7_4 C8_4 1_555 1_555
C7_4 H7_4 1_555 1_555
C8_4 C9_4 1_555 1_555
C8_4 C14_4 1_555 1_555
C9_4 C10_4 1_555 1_555
C9_4 H9_4 1_555 1_555
C11_4 C12_4 1_555 1_555
C12_4 C13_4 1_555 1_555
C13_4 H13_4 1_555 1_555
C14_4 C15_4 1_555 1_555
C14_4 H14A_4 1_555 1_555
C14_4 H14B_4 1_555 1_555
C15_4 C16_4 1_555 1_555
C15_4 H15A_4 1_555 1_555
C15_4 H15B_4 1_555 1_555
C16_4 C17_4 1_555 1_555
C16_4 H16A_4 1_555 1_555
C16_4 H16B_4 1_555 1_555
C17_4 C18_4 1_555 1_555
C17_4 H17A_4 1_555 1_555
C17_4 H17B_4 1_555 1_555
C18_4 C19_4 1_555 1_555
C18_4 H18A_4 1_555 1_555
C18_4 H18B_4 1_555 1_555
C19_4 C20_4 1_555 1_555
C19_4 H19A_4 1_555 1_555
C19_4 H19B_4 1_555 1_555
C20_4 C21_4 1_555 1_555
C20_4 H20A_4 1_555 1_555
C20_4 H20B_4 1_555 1_555
C21_4 C22_4 1_555 1_555
C21_4 H21A_4 1_555 1_555
C21_4 H21B_4 1_555 1_555
C22_4 C23_4 1_555 1_555
C22_4 H22A_4 1_555 1_555
C22_4 H22B_4 1_555 1_555
C23_4 H23A_4 1_555 1_555
C23_4 H23B_4 1_555 1_555
C23_4 H23C_4 1_555 1_555
S1_5 C2_5 1_555 1_555
S1_5 C12_5 1_555 1_555
C1_5 C2_5 1_555 1_555
C1_5 C10_5 1_555 1_555
C1_5 H1_5 1_555 1_555
C2_5 C3_5 1_555 1_555
C3_5 C4_5 1_555 1_555
C3_5 C11_5 1_555 1_555
C4_5 C5_5 1_555 1_555
C4_5 H4_5 1_555 1_555
C5_5 C6_5 1_555 1_555
C5_5 C10_5 1_555 1_555
C6_5 C7_5 1_555 1_555
C6_5 H6_5 1_555 1_555
C7_5 C8_5 1_555 1_555
C7_5 H7_5 1_555 1_555
C8_5 C9_5 1_555 1_555
C8_5 C14_5 1_555 1_555
C9_5 C10_5 1_555 1_555
C9_5 H9_5 1_555 1_555
C11_5 C12_5 1_555 1_555
C11_5 C13_6 1_555 1_555
C12_5 C13_5 1_555 1_555
C13_5 H13_5 1_555 1_555
C13_5 C11_6 1_555 1_555
C14_5 C15_5 1_555 1_555
C14_5 H14A_5 1_555 1_555
C14_5 H14B_5 1_555 1_555
C15_5 C16_5 1_555 1_555
C15_5 H15A_5 1_555 1_555
C15_5 H15B_5 1_555 1_555
C16_5 C17_5 1_555 1_555
C16_5 H16A_5 1_555 1_555
C16_5 H16B_5 1_555 1_555
C17_5 C18_5 1_555 1_555
C17_5 H17A_5 1_555 1_555
C17_5 H17B_5 1_555 1_555
C18_5 C19_5 1_555 1_555
C18_5 H18A_5 1_555 1_555
C18_5 H18B_5 1_555 1_555
C19_5 C20_5 1_555 1_555
C19_5 H19A_5 1_555 1_555
C19_5 H19B_5 1_555 1_555
C20_5 C21_5 1_555 1_555
C20_5 H20A_5 1_555 1_555
C20_5 H20B_5 1_555 1_555
C21_5 C22_5 1_555 1_555
C21_5 H21A_5 1_555 1_555
C21_5 H21B_5 1_555 1_555
C22_5 C23_5 1_555 1_555
C22_5 H22A_5 1_555 1_555
C22_5 H22B_5 1_555 1_555
C23_5 H23A_5 1_555 1_555
C23_5 H23B_5 1_555 1_555
C23_5 H23C_5 1_555 1_555
S1_6 C2_6 1_555 1_555
S1_6 C12_6 1_555 1_555
C1_6 C2_6 1_555 1_555
C1_6 C10_6 1_555 1_555
C1_6 H1_6 1_555 1_555
C2_6 C3_6 1_555 1_555
C3_6 C4_6 1_555 1_555
C3_6 C11_6 1_555 1_555
C4_6 C5_6 1_555 1_555
C4_6 H4_6 1_555 1_555
C5_6 C6_6 1_555 1_555
C5_6 C10_6 1_555 1_555
C6_6 C7_6 1_555 1_555
C6_6 H6_6 1_555 1_555
C7_6 C8_6 1_555 1_555
C7_6 H7_6 1_555 1_555
C8_6 C9_6 1_555 1_555
C8_6 C14_6 1_555 1_555
C9_6 C10_6 1_555 1_555
C9_6 H9_6 1_555 1_555
C11_6 C12_6 1_555 1_555
C12_6 C13_6 1_555 1_555
C13_6 H13_6 1_555 1_555
C14_6 C15_6 1_555 1_555
C14_6 H14A_6 1_555 1_555
C14_6 H14B_6 1_555 1_555
C15_6 C16_6 1_555 1_555
C15_6 H15A_6 1_555 1_555
C15_6 H15B_6 1_555 1_555
C16_6 C17_6 1_555 1_555
C16_6 H16A_6 1_555 1_555
C16_6 H16B_6 1_555 1_555
C17_6 C18_6 1_555 1_555
C17_6 H17A_6 1_555 1_555
C17_6 H17B_6 1_555 1_555
C18_6 C19_6 1_555 1_555
C18_6 H18A_6 1_555 1_555
C18_6 H18B_6 1_555 1_555
C19_6 C20_6 1_555 1_555
C19_6 H19A_6 1_555 1_555
C19_6 H19B_6 1_555 1_555
C20_6 C21_6 1_555 1_555
C20_6 H20A_6 1_555 1_555
C20_6 H20B_6 1_555 1_555
C21_6 C22_6 1_555 1_555
C21_6 H21A_6 1_555 1_555
C21_6 H21B_6 1_555 1_555
C22_6 C23_6 1_555 1_555
C22_6 H22A_6 1_555 1_555
C22_6 H22B_6 1_555 1_555
C23_6 H23A_6 1_555 1_555
C23_6 H23B_6 1_555 1_555
C23_6 H23C_6 1_555 1_555
S1_7 C2_7 1_555 1_555
S1_7 C12_7 1_555 1_555
C1_7 C2_7 1_555 1_555
C1_7 C10_7 1_555 1_555
C1_7 H1_7 1_555 1_555
C2_7 C3_7 1_555 1_555
C3_7 C4_7 1_555 1_555
C3_7 C11_7 1_555 1_555
C4_7 C5_7 1_555 1_555
C4_7 H4_7 1_555 1_555
C5_7 C6_7 1_555 1_555
C5_7 C10_7 1_555 1_555
C6_7 C7_7 1_555 1_555
C6_7 H6_7 1_555 1_555
C7_7 C8_7 1_555 1_555
C7_7 H7_7 1_555 1_555
C8_7 C9_7 1_555 1_555
C8_7 C14_7 1_555 1_555
C9_7 C10_7 1_555 1_555
C9_7 H9_7 1_555 1_555
C11_7 C12_7 1_555 1_555
C11_7 C13_8 1_555 1_555
C12_7 C13_7 1_555 1_555
C13_7 H13_7 1_555 1_555
C13_7 C11_8 1_555 1_555
C14_7 C15_7 1_555 1_555
C14_7 H14A_7 1_555 1_555
C14_7 H14B_7 1_555 1_555
C15_7 C16_7 1_555 1_555
C15_7 H15A_7 1_555 1_555
C15_7 H15B_7 1_555 1_555
C16_7 C17_7 1_555 1_555
C16_7 H16A_7 1_555 1_555
C16_7 H16B_7 1_555 1_555
C17_7 C18_7 1_555 1_555
C17_7 H17A_7 1_555 1_555
C17_7 H17B_7 1_555 1_555
C18_7 C19_7 1_555 1_555
C18_7 H18A_7 1_555 1_555
C18_7 H18B_7 1_555 1_555
C19_7 C20_7 1_555 1_555
C19_7 H19A_7 1_555 1_555
C19_7 H19B_7 1_555 1_555
C20_7 C21_7 1_555 1_555
C20_7 H20A_7 1_555 1_555
C20_7 H20B_7 1_555 1_555
C21_7 C22_7 1_555 1_555
C21_7 H21A_7 1_555 1_555
C21_7 H21B_7 1_555 1_555
C22_7 C23_7 1_555 1_555
C22_7 H22A_7 1_555 1_555
C22_7 H22B_7 1_555 1_555
C23_7 H23A_7 1_555 1_555
C23_7 H23B_7 1_555 1_555
C23_7 H23C_7 1_555 1_555
S1_8 C2_8 1_555 1_555
S1_8 C12_8 1_555 1_555
C1_8 C2_8 1_555 1_555
C1_8 C10_8 1_555 1_555
C1_8 H1_8 1_555 1_555
C2_8 C3_8 1_555 1_555
C3_8 C4_8 1_555 1_555
C3_8 C11_8 1_555 1_555
C4_8 C5_8 1_555 1_555
C4_8 H4_8 1_555 1_555
C5_8 C6_8 1_555 1_555
C5_8 C10_8 1_555 1_555
C6_8 C7_8 1_555 1_555
C6_8 H6_8 1_555 1_555
C7_8 C8_8 1_555 1_555
C7_8 H7_8 1_555 1_555
C8_8 C9_8 1_555 1_555
C8_8 C14_8 1_555 1_555
C9_8 C10_8 1_555 1_555
C9_8 H9_8 1_555 1_555
C11_8 C12_8 1_555 1_555
C12_8 C13_8 1_555 1_555
C13_8 H13_8 1_555 1_555
C14_8 C15_8 1_555 1_555
C14_8 H14A_8 1_555 1_555
C14_8 H14B_8 1_555 1_555
C15_8 C16_8 1_555 1_555
C15_8 H15A_8 1_555 1_555
C15_8 H15B_8 1_555 1_555
C16_8 C17_8 1_555 1_555
C16_8 H16A_8 1_555 1_555
C16_8 H16B_8 1_555 1_555
C17_8 C18_8 1_555 1_555
C17_8 H17A_8 1_555 1_555
C17_8 H17B_8 1_555 1_555
C18_8 C19_8 1_555 1_555
C18_8 H18A_8 1_555 1_555
C18_8 H18B_8 1_555 1_555
C19_8 C20_8 1_555 1_555
C19_8 H19A_8 1_555 1_555
C19_8 H19B_8 1_555 1_555
C20_8 C21_8 1_555 1_555
C20_8 H20A_8 1_555 1_555
C20_8 H20B_8 1_555 1_555
C21_8 C22_8 1_555 1_555
C21_8 H21A_8 1_555 1_555
C21_8 H21B_8 1_555 1_555
C22_8 C23_8 1_555 1_555
C22_8 H22A_8 1_555 1_555
C22_8 H22B_8 1_555 1_555
C23_8 H23A_8 1_555 1_555
C23_8 H23B_8 1_555 1_555
C23_8 H23C_8 1_555 1_555
S1_9 C2_9 1_555 1_555
S1_9 C12_9 1_555 1_555
C1_9 C2_9 1_555 1_555
C1_9 C10_9 1_555 1_555
C1_9 H1_9 1_555 1_555
C2_9 C3_9 1_555 1_555
C3_9 C4_9 1_555 1_555
C3_9 C11_9 1_555 1_555
C4_9 C5_9 1_555 1_555
C4_9 H4_9 1_555 1_555
C5_9 C6_9 1_555 1_555
C5_9 C10_9 1_555 1_555
C6_9 C7_9 1_555 1_555
C6_9 H6_9 1_555 1_555
C7_9 C8_9 1_555 1_555
C7_9 H7_9 1_555 1_555
C8_9 C9_9 1_555 1_555
C8_9 C14_9 1_555 1_555
C9_9 C10_9 1_555 1_555
C9_9 H9_9 1_555 1_555
C11_9 C12_9 1_555 1_555
C11_9 C13_10 1_555 1_555
C12_9 C13_9 1_555 1_555
C13_9 H13_9 1_555 1_555
C13_9 C11_10 1_555 1_555
C14_9 C15_9 1_555 1_555
C14_9 H14A_9 1_555 1_555
C14_9 H14B_9 1_555 1_555
C15_9 C16_9 1_555 1_555
C15_9 H15A_9 1_555 1_555
C15_9 H15B_9 1_555 1_555
C16_9 C17_9 1_555 1_555
C16_9 H16A_9 1_555 1_555
C16_9 H16B_9 1_555 1_555
C17_9 C18_9 1_555 1_555
C17_9 H17A_9 1_555 1_555
C17_9 H17B_9 1_555 1_555
C18_9 C19_9 1_555 1_555
C18_9 H18A_9 1_555 1_555
C18_9 H18B_9 1_555 1_555
C19_9 C20_9 1_555 1_555
C19_9 H19A_9 1_555 1_555
C19_9 H19B_9 1_555 1_555
C20_9 C21_9 1_555 1_555
C20_9 H20A_9 1_555 1_555
C20_9 H20B_9 1_555 1_555
C21_9 C22_9 1_555 1_555
C21_9 H21A_9 1_555 1_555
C21_9 H21B_9 1_555 1_555
C22_9 C23_9 1_555 1_555
C22_9 H22A_9 1_555 1_555
C22_9 H22B_9 1_555 1_555
C23_9 H23A_9 1_555 1_555
C23_9 H23B_9 1_555 1_555
C23_9 H23C_9 1_555 1_555
S1_10 C2_10 1_555 1_555
S1_10 C12_10 1_555 1_555
C1_10 C2_10 1_555 1_555
C1_10 C10_10 1_555 1_555
C1_10 H1_10 1_555 1_555
C2_10 C3_10 1_555 1_555
C3_10 C4_10 1_555 1_555
C3_10 C11_10 1_555 1_555
C4_10 C5_10 1_555 1_555
C4_10 H4_10 1_555 1_555
C5_10 C6_10 1_555 1_555
C5_10 C10_10 1_555 1_555
C6_10 C7_10 1_555 1_555
C6_10 H6_10 1_555 1_555
C7_10 C8_10 1_555 1_555
C7_10 H7_10 1_555 1_555
C8_10 C9_10 1_555 1_555
C8_10 C14_10 1_555 1_555
C9_10 C10_10 1_555 1_555
C9_10 H9_10 1_555 1_555
C11_10 C12_10 1_555 1_555
C12_10 C13_10 1_555 1_555
C13_10 H13_10 1_555 1_555
C14_10 C15_10 1_555 1_555
C14_10 H14A_10 1_555 1_555
C14_10 H14B_10 1_555 1_555
C15_10 C16_10 1_555 1_555
C15_10 H15A_10 1_555 1_555
C15_10 H15B_10 1_555 1_555
C16_10 C17_10 1_555 1_555
C16_10 H16A_10 1_555 1_555
C16_10 H16B_10 1_555 1_555
C17_10 C18_10 1_555 1_555
C17_10 H17A_10 1_555 1_555
C17_10 H17B_10 1_555 1_555
C18_10 C19_10 1_555 1_555
C18_10 H18A_10 1_555 1_555
C18_10 H18B_10 1_555 1_555
C19_10 C20_10 1_555 1_555
C19_10 H19A_10 1_555 1_555
C19_10 H19B_10 1_555 1_555
C20_10 C21_10 1_555 1_555
C20_10 H20A_10 1_555 1_555
C20_10 H20B_10 1_555 1_555
C21_10 C22_10 1_555 1_555
C21_10 H21A_10 1_555 1_555
C21_10 H21B_10 1_555 1_555
C22_10 C23_10 1_555 1_555
C22_10 H22A_10 1_555 1_555
C22_10 H22B_10 1_555 1_555
C23_10 H23A_10 1_555 1_555
C23_10 H23B_10 1_555 1_555
C23_10 H23C_10 1_555 1_555
S1_11 C2_11 1_555 1_555
S1_11 C12_11 1_555 1_555
C1_11 C2_11 1_555 1_555
C1_11 C10_11 1_555 1_555
C1_11 H1_11 1_555 1_555
C2_11 C3_11 1_555 1_555
C3_11 C4_11 1_555 1_555
C3_11 C11_11 1_555 1_555
C4_11 C5_11 1_555 1_555
C4_11 H4_11 1_555 1_555
C5_11 C6_11 1_555 1_555
C5_11 C10_11 1_555 1_555
C6_11 C7_11 1_555 1_555
C6_11 H6_11 1_555 1_555
C7_11 C8_11 1_555 1_555
C7_11 H7_11 1_555 1_555
C8_11 C9_11 1_555 1_555
C8_11 C14_11 1_555 1_555
C9_11 C10_11 1_555 1_555
C9_11 H9_11 1_555 1_555
C11_11 C12_11 1_555 1_555
C11_11 C13_12 1_555 1_555
C12_11 C13_11 1_555 1_555
C13_11 H13_11 1_555 1_555
C13_11 C11_12 1_555 1_555
C14_11 C15_11 1_555 1_555
C14_11 H14A_11 1_555 1_555
C14_11 H14B_11 1_555 1_555
C15_11 C16_11 1_555 1_555
C15_11 H15A_11 1_555 1_555
C15_11 H15B_11 1_555 1_555
C16_11 C17_11 1_555 1_555
C16_11 H16A_11 1_555 1_555
C16_11 H16B_11 1_555 1_555
C17_11 C18_11 1_555 1_555
C17_11 H17A_11 1_555 1_555
C17_11 H17B_11 1_555 1_555
C18_11 C19_11 1_555 1_555
C18_11 H18A_11 1_555 1_555
C18_11 H18B_11 1_555 1_555
C19_11 C20_11 1_555 1_555
C19_11 H19A_11 1_555 1_555
C19_11 H19B_11 1_555 1_555
C20_11 C21_11 1_555 1_555
C20_11 H20A_11 1_555 1_555
C20_11 H20B_11 1_555 1_555
C21_11 C22_11 1_555 1_555
C21_11 H21A_11 1_555 1_555
C21_11 H21B_11 1_555 1_555
C22_11 C23_11 1_555 1_555
C22_11 H22A_11 1_555 1_555
C22_11 H22B_11 1_555 1_555
C23_11 H23A_11 1_555 1_555
C23_11 H23B_11 1_555 1_555
C23_11 H23C_11 1_555 1_555
S1_12 C2_12 1_555 1_555
S1_12 C12_12 1_555 1_555
C1_12 C2_12 1_555 1_555
C1_12 C10_12 1_555 1_555
C1_12 H1_12 1_555 1_555
C2_12 C3_12 1_555 1_555
C3_12 C4_12 1_555 1_555
C3_12 C11_12 1_555 1_555
C4_12 C5_12 1_555 1_555
C4_12 H4_12 1_555 1_555
C5_12 C6_12 1_555 1_555
C5_12 C10_12 1_555 1_555
C6_12 C7_12 1_555 1_555
C6_12 H6_12 1_555 1_555
C7_12 C8_12 1_555 1_555
C7_12 H7_12 1_555 1_555
C8_12 C9_12 1_555 1_555
C8_12 C14_12 1_555 1_555
C9_12 C10_12 1_555 1_555
C9_12 H9_12 1_555 1_555
C11_12 C12_12 1_555 1_555
C12_12 C13_12 1_555 1_555
C13_12 H13_12 1_555 1_555
C14_12 C15_12 1_555 1_555
C14_12 H14A_12 1_555 1_555
C14_12 H14B_12 1_555 1_555
C15_12 C16_12 1_555 1_555
C15_12 H15A_12 1_555 1_555
C15_12 H15B_12 1_555 1_555
C16_12 C17_12 1_555 1_555
C16_12 H16A_12 1_555 1_555
C16_12 H16B_12 1_555 1_555
C17_12 C18_12 1_555 1_555
C17_12 H17A_12 1_555 1_555
C17_12 H17B_12 1_555 1_555
C18_12 C19_12 1_555 1_555
C18_12 H18A_12 1_555 1_555
C18_12 H18B_12 1_555 1_555
C19_12 C20_12 1_555 1_555
C19_12 H19A_12 1_555 1_555
C19_12 H19B_12 1_555 1_555
C20_12 C21_12 1_555 1_555
C20_12 H20A_12 1_555 1_555
C20_12 H20B_12 1_555 1_555
C21_12 C22_12 1_555 1_555
C21_12 H21A_12 1_555 1_555
C21_12 H21B_12 1_555 1_555
C22_12 C23_12 1_555 1_555
C22_12 H22A_12 1_555 1_555
C22_12 H22B_12 1_555 1_555
C23_12 H23A_12 1_555 1_555
C23_12 H23B_12 1_555 1_555
C23_12 H23C_12 1_555 1_555
S1_13 C2_13 1_555 1_555
S1_13 C12_13 1_555 1_555
C1_13 C2_13 1_555 1_555
C1_13 C10_13 1_555 1_555
C1_13 H1_13 1_555 1_555
C2_13 C3_13 1_555 1_555
C3_13 C4_13 1_555 1_555
C3_13 C11_13 1_555 1_555
C4_13 C5_13 1_555 1_555
C4_13 H4_13 1_555 1_555
C5_13 C6_13 1_555 1_555
C5_13 C10_13 1_555 1_555
C6_13 C7_13 1_555 1_555
C6_13 H6_13 1_555 1_555
C7_13 C8_13 1_555 1_555
C7_13 H7_13 1_555 1_555
C8_13 C9_13 1_555 1_555
C8_13 C14_13 1_555 1_555
C9_13 C10_13 1_555 1_555
C9_13 H9_13 1_555 1_555
C11_13 C12_13 1_555 1_555
C11_13 C13_14 1_555 1_555
C12_13 C13_13 1_555 1_555
C13_13 H13_13 1_555 1_555
C13_13 C11_14 1_555 1_555
C14_13 C15_13 1_555 1_555
C14_13 H14A_13 1_555 1_555
C14_13 H14B_13 1_555 1_555
C15_13 C16_13 1_555 1_555
C15_13 H15A_13 1_555 1_555
C15_13 H15B_13 1_555 1_555
C16_13 C17_13 1_555 1_555
C16_13 H16A_13 1_555 1_555
C16_13 H16B_13 1_555 1_555
C17_13 C18_13 1_555 1_555
C17_13 H17A_13 1_555 1_555
C17_13 H17B_13 1_555 1_555
C18_13 C19_13 1_555 1_555
C18_13 H18A_13 1_555 1_555
C18_13 H18B_13 1_555 1_555
C19_13 C20_13 1_555 1_555
C19_13 H19A_13 1_555 1_555
C19_13 H19B_13 1_555 1_555
C20_13 C21_13 1_555 1_555
C20_13 H20A_13 1_555 1_555
C20_13 H20B_13 1_555 1_555
C21_13 C22_13 1_555 1_555
C21_13 H21A_13 1_555 1_555
C21_13 H21B_13 1_555 1_555
C22_13 C23_13 1_555 1_555
C22_13 H22A_13 1_555 1_555
C22_13 H22B_13 1_555 1_555
C23_13 H23A_13 1_555 1_555
C23_13 H23B_13 1_555 1_555
C23_13 H23C_13 1_555 1_555
S1_14 C2_14 1_555 1_555
S1_14 C12_14 1_555 1_555
C1_14 C2_14 1_555 1_555
C1_14 C10_14 1_555 1_555
C1_14 H1_14 1_555 1_555
C2_14 C3_14 1_555 1_555
C3_14 C4_14 1_555 1_555
C3_14 C11_14 1_555 1_555
C4_14 C5_14 1_555 1_555
C4_14 H4_14 1_555 1_555
C5_14 C6_14 1_555 1_555
C5_14 C10_14 1_555 1_555
C6_14 C7_14 1_555 1_555
C6_14 H6_14 1_555 1_555
C7_14 C8_14 1_555 1_555
C7_14 H7_14 1_555 1_555
C8_14 C9_14 1_555 1_555
C8_14 C14_14 1_555 1_555
C9_14 C10_14 1_555 1_555
C9_14 H9_14 1_555 1_555
C11_14 C12_14 1_555 1_555
C12_14 C13_14 1_555 1_555
C13_14 H13_14 1_555 1_555
C14_14 C15_14 1_555 1_555
C14_14 H14A_14 1_555 1_555
C14_14 H14B_14 1_555 1_555
C15_14 C16_14 1_555 1_555
C15_14 H15A_14 1_555 1_555
C15_14 H15B_14 1_555 1_555
C16_14 C17_14 1_555 1_555
C16_14 H16A_14 1_555 1_555
C16_14 H16B_14 1_555 1_555
C17_14 C18_14 1_555 1_555
C17_14 H17A_14 1_555 1_555
C17_14 H17B_14 1_555 1_555
C18_14 C19_14 1_555 1_555
C18_14 H18A_14 1_555 1_555
C18_14 H18B_14 1_555 1_555
C19_14 C20_14 1_555 1_555
C19_14 H19A_14 1_555 1_555
C19_14 H19B_14 1_555 1_555
C20_14 C21_14 1_555 1_555
C20_14 H20A_14 1_555 1_555
C20_14 H20B_14 1_555 1_555
C21_14 C22_14 1_555 1_555
C21_14 H21A_14 1_555 1_555
C21_14 H21B_14 1_555 1_555
C22_14 C23_14 1_555 1_555
C22_14 H22A_14 1_555 1_555
C22_14 H22B_14 1_555 1_555
C23_14 H23A_14 1_555 1_555
C23_14 H23B_14 1_555 1_555
C23_14 H23C_14 1_555 1_555
S1_15 C2_15 1_555 1_555
S1_15 C12_15 1_555 1_555
C1_15 C2_15 1_555 1_555
C1_15 C10_15 1_555 1_555
C1_15 H1_15 1_555 1_555
C2_15 C3_15 1_555 1_555
C3_15 C4_15 1_555 1_555
C3_15 C11_15 1_555 1_555
C4_15 C5_15 1_555 1_555
C4_15 H4_15 1_555 1_555
C5_15 C6_15 1_555 1_555
C5_15 C10_15 1_555 1_555
C6_15 C7_15 1_555 1_555
C6_15 H6_15 1_555 1_555
C7_15 C8_15 1_555 1_555
C7_15 H7_15 1_555 1_555
C8_15 C9_15 1_555 1_555
C8_15 C14_15 1_555 1_555
C9_15 C10_15 1_555 1_555
C9_15 H9_15 1_555 1_555
C11_15 C12_15 1_555 1_555
C11_15 C13_16 1_555 1_555
C12_15 C13_15 1_555 1_555
C13_15 H13_15 1_555 1_555
C13_15 C11_16 1_555 1_555
C14_15 C15_15 1_555 1_555
C14_15 H14A_15 1_555 1_555
C14_15 H14B_15 1_555 1_555
C15_15 C16_15 1_555 1_555
C15_15 H15A_15 1_555 1_555
C15_15 H15B_15 1_555 1_555
C16_15 C17_15 1_555 1_555
C16_15 H16A_15 1_555 1_555
C16_15 H16B_15 1_555 1_555
C17_15 C18_15 1_555 1_555
C17_15 H17A_15 1_555 1_555
C17_15 H17B_15 1_555 1_555
C18_15 C19_15 1_555 1_555
C18_15 H18A_15 1_555 1_555
C18_15 H18B_15 1_555 1_555
C19_15 C20_15 1_555 1_555
C19_15 H19A_15 1_555 1_555
C19_15 H19B_15 1_555 1_555
C20_15 C21_15 1_555 1_555
C20_15 H20A_15 1_555 1_555
C20_15 H20B_15 1_555 1_555
C21_15 C22_15 1_555 1_555
C21_15 H21A_15 1_555 1_555
C21_15 H21B_15 1_555 1_555
C22_15 C23_15 1_555 1_555
C22_15 H22A_15 1_555 1_555
C22_15 H22B_15 1_555 1_555
C23_15 H23A_15 1_555 1_555
C23_15 H23B_15 1_555 1_555
C23_15 H23C_15 1_555 1_555
S1_16 C2_16 1_555 1_555
S1_16 C12_16 1_555 1_555
C1_16 C2_16 1_555 1_555
C1_16 C10_16 1_555 1_555
C1_16 H1_16 1_555 1_555
C2_16 C3_16 1_555 1_555
C3_16 C4_16 1_555 1_555
C3_16 C11_16 1_555 1_555
C4_16 C5_16 1_555 1_555
C4_16 H4_16 1_555 1_555
C5_16 C6_16 1_555 1_555
C5_16 C10_16 1_555 1_555
C6_16 C7_16 1_555 1_555
C6_16 H6_16 1_555 1_555
C7_16 C8_16 1_555 1_555
C7_16 H7_16 1_555 1_555
C8_16 C9_16 1_555 1_555
C8_16 C14_16 1_555 1_555
C9_16 C10_16 1_555 1_555
C9_16 H9_16 1_555 1_555
C11_16 C12_16 1_555 1_555
C12_16 C13_16 1_555 1_555
C13_16 H13_16 1_555 1_555
C14_16 C15_16 1_555 1_555
C14_16 H14A_16 1_555 1_555
C14_16 H14B_16 1_555 1_555
C15_16 C16_16 1_555 1_555
C15_16 H15A_16 1_555 1_555
C15_16 H15B_16 1_555 1_555
C16_16 C17_16 1_555 1_555
C16_16 H16A_16 1_555 1_555
C16_16 H16B_16 1_555 1_555
C17_16 C18_16 1_555 1_555
C17_16 H17A_16 1_555 1_555
C17_16 H17B_16 1_555 1_555
C18_16 C19_16 1_555 1_555
C18_16 H18A_16 1_555 1_555
C18_16 H18B_16 1_555 1_555
C19_16 C20_16 1_555 1_555
C19_16 H19A_16 1_555 1_555
C19_16 H19B_16 1_555 1_555
C20_16 C21_16 1_555 1_555
C20_16 H20A_16 1_555 1_555
C20_16 H20B_16 1_555 1_555
C21_16 C22_16 1_555 1_555
C21_16 H21A_16 1_555 1_555
C21_16 H21B_16 1_555 1_555
C22_16 C23_16 1_555 1_555
C22_16 H22A_16 1_555 1_555
C22_16 H22B_16 1_555 1_555
C23_16 H23A_16 1_555 1_555
C23_16 H23B_16 1_555 1_555
C23_16 H23C_16 1_555 1_555
S1_17 C2_17 1_555 1_555
S1_17 C12_17 1_555 1_555
C1_17 C2_17 1_555 1_555
C1_17 C10_17 1_555 1_555
C1_17 H1_17 1_555 1_555
C2_17 C3_17 1_555 1_555
C3_17 C4_17 1_555 1_555
C3_17 C11_17 1_555 1_555
C4_17 C5_17 1_555 1_555
C4_17 H4_17 1_555 1_555
C5_17 C6_17 1_555 1_555
C5_17 C10_17 1_555 1_555
C6_17 C7_17 1_555 1_555
C6_17 H6_17 1_555 1_555
C7_17 C8_17 1_555 1_555
C7_17 H7_17 1_555 1_555
C8_17 C9_17 1_555 1_555
C8_17 C14_17 1_555 1_555
C9_17 C10_17 1_555 1_555
C9_17 H9_17 1_555 1_555
C11_17 C12_17 1_555 1_555
C11_17 C13_18 1_555 1_555
C12_17 C13_17 1_555 1_555
C13_17 H13_17 1_555 1_555
C13_17 C11_18 1_555 1_555
C14_17 C15_17 1_555 1_555
C14_17 H14A_17 1_555 1_555
C14_17 H14B_17 1_555 1_555
C15_17 C16_17 1_555 1_555
C15_17 H15A_17 1_555 1_555
C15_17 H15B_17 1_555 1_555
C16_17 C17_17 1_555 1_555
C16_17 H16A_17 1_555 1_555
C16_17 H16B_17 1_555 1_555
C17_17 C18_17 1_555 1_555
C17_17 H17A_17 1_555 1_555
C17_17 H17B_17 1_555 1_555
C18_17 C19_17 1_555 1_555
C18_17 H18A_17 1_555 1_555
C18_17 H18B_17 1_555 1_555
C19_17 C20_17 1_555 1_555
C19_17 H19A_17 1_555 1_555
C19_17 H19B_17 1_555 1_555
C20_17 C21_17 1_555 1_555
C20_17 H20A_17 1_555 1_555
C20_17 H20B_17 1_555 1_555
C21_17 C22_17 1_555 1_555
C21_17 H21A_17 1_555 1_555
C21_17 H21B_17 1_555 1_555
C22_17 C23_17 1_555 1_555
C22_17 H22A_17 1_555 1_555
C22_17 H22B_17 1_555 1_555
C23_17 H23A_17 1_555 1_555
C23_17 H23B_17 1_555 1_555
C23_17 H23C_17 1_555 1_555
S1_18 C2_18 1_555 1_555
S1_18 C12_18 1_555 1_555
C1_18 C2_18 1_555 1_555
C1_18 C10_18 1_555 1_555
C1_18 H1_18 1_555 1_555
C2_18 C3_18 1_555 1_555
C3_18 C4_18 1_555 1_555
C3_18 C11_18 1_555 1_555
C4_18 C5_18 1_555 1_555
C4_18 H4_18 1_555 1_555
C5_18 C6_18 1_555 1_555
C5_18 C10_18 1_555 1_555
C6_18 C7_18 1_555 1_555
C6_18 H6_18 1_555 1_555
C7_18 C8_18 1_555 1_555
C7_18 H7_18 1_555 1_555
C8_18 C9_18 1_555 1_555
C8_18 C14_18 1_555 1_555
C9_18 C10_18 1_555 1_555
C9_18 H9_18 1_555 1_555
C11_18 C12_18 1_555 1_555
C12_18 C13_18 1_555 1_555
C13_18 H13_18 1_555 1_555
C14_18 C15_18 1_555 1_555
C14_18 H14A_18 1_555 1_555
C14_18 H14B_18 1_555 1_555
C15_18 C16_18 1_555 1_555
C15_18 H15A_18 1_555 1_555
C15_18 H15B_18 1_555 1_555
C16_18 C17_18 1_555 1_555
C16_18 H16A_18 1_555 1_555
C16_18 H16B_18 1_555 1_555
C17_18 C18_18 1_555 1_555
C17_18 H17A_18 1_555 1_555
C17_18 H17B_18 1_555 1_555
C18_18 C19_18 1_555 1_555
C18_18 H18A_18 1_555 1_555
C18_18 H18B_18 1_555 1_555
C19_18 C20_18 1_555 1_555
C19_18 H19A_18 1_555 1_555
C19_18 H19B_18 1_555 1_555
C20_18 C21_18 1_555 1_555
C20_18 H20A_18 1_555 1_555
C20_18 H20B_18 1_555 1_555
C21_18 C22_18 1_555 1_555
C21_18 H21A_18 1_555 1_555
C21_18 H21B_18 1_555 1_555
C22_18 C23_18 1_555 1_555
C22_18 H22A_18 1_555 1_555
C22_18 H22B_18 1_555 1_555
C23_18 H23A_18 1_555 1_555
C23_18 H23B_18 1_555 1_555
C23_18 H23C_18 1_555 1_555
S1_19 C2_19 1_555 1_555
S1_19 C12_19 1_555 1_555
C1_19 C2_19 1_555 1_555
C1_19 C10_19 1_555 1_555
C1_19 H1_19 1_555 1_555
C2_19 C3_19 1_555 1_555
C3_19 C4_19 1_555 1_555
C3_19 C11_19 1_555 1_555
C4_19 C5_19 1_555 1_555
C4_19 H4_19 1_555 1_555
C5_19 C6_19 1_555 1_555
C5_19 C10_19 1_555 1_555
C6_19 C7_19 1_555 1_555
C6_19 H6_19 1_555 1_555
C7_19 C8_19 1_555 1_555
C7_19 H7_19 1_555 1_555
C8_19 C9_19 1_555 1_555
C8_19 C14_19 1_555 1_555
C9_19 C10_19 1_555 1_555
C9_19 H9_19 1_555 1_555
C11_19 C12_19 1_555 1_555
C11_19 C13_20 1_555 1_555
C12_19 C13_19 1_555 1_555
C13_19 H13_19 1_555 1_555
C13_19 C11_20 1_555 1_555
C14_19 C15_19 1_555 1_555
C14_19 H14A_19 1_555 1_555
C14_19 H14B_19 1_555 1_555
C15_19 C16_19 1_555 1_555
C15_19 H15A_19 1_555 1_555
C15_19 H15B_19 1_555 1_555
C16_19 C17_19 1_555 1_555
C16_19 H16A_19 1_555 1_555
C16_19 H16B_19 1_555 1_555
C17_19 C18_19 1_555 1_555
C17_19 H17A_19 1_555 1_555
C17_19 H17B_19 1_555 1_555
C18_19 C19_19 1_555 1_555
C18_19 H18A_19 1_555 1_555
C18_19 H18B_19 1_555 1_555
C19_19 C20_19 1_555 1_555
C19_19 H19A_19 1_555 1_555
C19_19 H19B_19 1_555 1_555
C20_19 C21_19 1_555 1_555
C20_19 H20A_19 1_555 1_555
C20_19 H20B_19 1_555 1_555
C21_19 C22_19 1_555 1_555
C21_19 H21A_19 1_555 1_555
C21_19 H21B_19 1_555 1_555
C22_19 C23_19 1_555 1_555
C22_19 H22A_19 1_555 1_555
C22_19 H22B_19 1_555 1_555
C23_19 H23A_19 1_555 1_555
C23_19 H23B_19 1_555 1_555
C23_19 H23C_19 1_555 1_555
S1_20 C2_20 1_555 1_555
S1_20 C12_20 1_555 1_555
C1_20 C2_20 1_555 1_555
C1_20 C10_20 1_555 1_555
C1_20 H1_20 1_555 1_555
C2_20 C3_20 1_555 1_555
C3_20 C4_20 1_555 1_555
C3_20 C11_20 1_555 1_555
C4_20 C5_20 1_555 1_555
C4_20 H4_20 1_555 1_555
C5_20 C6_20 1_555 1_555
C5_20 C10_20 1_555 1_555
C6_20 C7_20 1_555 1_555
C6_20 H6_20 1_555 1_555
C7_20 C8_20 1_555 1_555
C7_20 H7_20 1_555 1_555
C8_20 C9_20 1_555 1_555
C8_20 C14_20 1_555 1_555
C9_20 C10_20 1_555 1_555
C9_20 H9_20 1_555 1_555
C11_20 C12_20 1_555 1_555
C12_20 C13_20 1_555 1_555
C13_20 H13_20 1_555 1_555
C14_20 C15_20 1_555 1_555
C14_20 H14A_20 1_555 1_555
C14_20 H14B_20 1_555 1_555
C15_20 C16_20 1_555 1_555
C15_20 H15A_20 1_555 1_555
C15_20 H15B_20 1_555 1_555
C16_20 C17_20 1_555 1_555
C16_20 H16A_20 1_555 1_555
C16_20 H16B_20 1_555 1_555
C17_20 C18_20 1_555 1_555
C17_20 H17A_20 1_555 1_555
C17_20 H17B_20 1_555 1_555
C18_20 C19_20 1_555 1_555
C18_20 H18A_20 1_555 1_555
C18_20 H18B_20 1_555 1_555
C19_20 C20_20 1_555 1_555
C19_20 H19A_20 1_555 1_555
C19_20 H19B_20 1_555 1_555
C20_20 C21_20 1_555 1_555
C20_20 H20A_20 1_555 1_555
C20_20 H20B_20 1_555 1_555
C21_20 C22_20 1_555 1_555
C21_20 H21A_20 1_555 1_555
C21_20 H21B_20 1_555 1_555
C22_20 C23_20 1_555 1_555
C22_20 H22A_20 1_555 1_555
C22_20 H22B_20 1_555 1_555
C23_20 H23A_20 1_555 1_555
C23_20 H23B_20 1_555 1_555
C23_20 H23C_20 1_555 1_555
S1_21 C2_21 1_555 1_555
S1_21 C12_21 1_555 1_555
C1_21 C2_21 1_555 1_555
C1_21 C10_21 1_555 1_555
C1_21 H1_21 1_555 1_555
C2_21 C3_21 1_555 1_555
C3_21 C4_21 1_555 1_555
C3_21 C11_21 1_555 1_555
C4_21 C5_21 1_555 1_555
C4_21 H4_21 1_555 1_555
C5_21 C6_21 1_555 1_555
C5_21 C10_21 1_555 1_555
C6_21 C7_21 1_555 1_555
C6_21 H6_21 1_555 1_555
C7_21 C8_21 1_555 1_555
C7_21 H7_21 1_555 1_555
C8_21 C9_21 1_555 1_555
C8_21 C14_21 1_555 1_555
C9_21 C10_21 1_555 1_555
C9_21 H9_21 1_555 1_555
C11_21 C12_21 1_555 1_555
C11_21 C13_22 1_555 1_555
C12_21 C13_21 1_555 1_555
C13_21 H13_21 1_555 1_555
C13_21 C11_22 1_555 1_555
C14_21 C15_21 1_555 1_555
C14_21 H14A_21 1_555 1_555
C14_21 H14B_21 1_555 1_555
C15_21 C16_21 1_555 1_555
C15_21 H15A_21 1_555 1_555
C15_21 H15B_21 1_555 1_555
C16_21 C17_21 1_555 1_555
C16_21 H16A_21 1_555 1_555
C16_21 H16B_21 1_555 1_555
C17_21 C18_21 1_555 1_555
C17_21 H17A_21 1_555 1_555
C17_21 H17B_21 1_555 1_555
C18_21 C19_21 1_555 1_555
C18_21 H18A_21 1_555 1_555
C18_21 H18B_21 1_555 1_555
C19_21 C20_21 1_555 1_555
C19_21 H19A_21 1_555 1_555
C19_21 H19B_21 1_555 1_555
C20_21 C21_21 1_555 1_555
C20_21 H20A_21 1_555 1_555
C20_21 H20B_21 1_555 1_555
C21_21 C22_21 1_555 1_555
C21_21 H21A_21 1_555 1_555
C21_21 H21B_21 1_555 1_555
C22_21 C23_21 1_555 1_555
C22_21 H22A_21 1_555 1_555
C22_21 H22B_21 1_555 1_555
C23_21 H23A_21 1_555 1_555
C23_21 H23B_21 1_555 1_555
C23_21 H23C_21 1_555 1_555
S1_22 C2_22 1_555 1_555
S1_22 C12_22 1_555 1_555
C1_22 C2_22 1_555 1_555
C1_22 C10_22 1_555 1_555
C1_22 H1_22 1_555 1_555
C2_22 C3_22 1_555 1_555
C3_22 C4_22 1_555 1_555
C3_22 C11_22 1_555 1_555
C4_22 C5_22 1_555 1_555
C4_22 H4_22 1_555 1_555
C5_22 C6_22 1_555 1_555
C5_22 C10_22 1_555 1_555
C6_22 C7_22 1_555 1_555
C6_22 H6_22 1_555 1_555
C7_22 C8_22 1_555 1_555
C7_22 H7_22 1_555 1_555
C8_22 C9_22 1_555 1_555
C8_22 C14_22 1_555 1_555
C9_22 C10_22 1_555 1_555
C9_22 H9_22 1_555 1_555
C11_22 C12_22 1_555 1_555
C12_22 C13_22 1_555 1_555
C13_22 H13_22 1_555 1_555
C14_22 C15_22 1_555 1_555
C14_22 H14A_22 1_555 1_555
C14_22 H14B_22 1_555 1_555
C15_22 C16_22 1_555 1_555
C15_22 H15A_22 1_555 1_555
C15_22 H15B_22 1_555 1_555
C16_22 C17_22 1_555 1_555
C16_22 H16A_22 1_555 1_555
C16_22 H16B_22 1_555 1_555
C17_22 C18_22 1_555 1_555
C17_22 H17A_22 1_555 1_555
C17_22 H17B_22 1_555 1_555
C18_22 C19_22 1_555 1_555
C18_22 H18A_22 1_555 1_555
C18_22 H18B_22 1_555 1_555
C19_22 C20_22 1_555 1_555
C19_22 H19A_22 1_555 1_555
C19_22 H19B_22 1_555 1_555
C20_22 C21_22 1_555 1_555
C20_22 H20A_22 1_555 1_555
C20_22 H20B_22 1_555 1_555
C21_22 C22_22 1_555 1_555
C21_22 H21A_22 1_555 1_555
C21_22 H21B_22 1_555 1_555
C22_22 C23_22 1_555 1_555
C22_22 H22A_22 1_555 1_555
C22_22 H22B_22 1_555 1_555
C23_22 H23A_22 1_555 1_555
C23_22 H23B_22 1_555 1_555
C23_22 H23C_22 1_555 1_555
S1_23 C2_23 1_555 1_555
S1_23 C12_23 1_555 1_555
C1_23 C2_23 1_555 1_555
C1_23 C10_23 1_555 1_555
C1_23 H1_23 1_555 1_555
C2_23 C3_23 1_555 1_555
C3_23 C4_23 1_555 1_555
C3_23 C11_23 1_555 1_555
C4_23 C5_23 1_555 1_555
C4_23 H4_23 1_555 1_555
C5_23 C6_23 1_555 1_555
C5_23 C10_23 1_555 1_555
C6_23 C7_23 1_555 1_555
C6_23 H6_23 1_555 1_555
C7_23 C8_23 1_555 1_555
C7_23 H7_23 1_555 1_555
C8_23 C9_23 1_555 1_555
C8_23 C14_23 1_555 1_555
C9_23 C10_23 1_555 1_555
C9_23 H9_23 1_555 1_555
C11_23 C12_23 1_555 1_555
C11_23 C13_24 1_555 1_555
C12_23 C13_23 1_555 1_555
C13_23 H13_23 1_555 1_555
C13_23 C11_24 1_555 1_555
C14_23 C15_23 1_555 1_555
C14_23 H14A_23 1_555 1_555
C14_23 H14B_23 1_555 1_555
C15_23 C16_23 1_555 1_555
C15_23 H15A_23 1_555 1_555
C15_23 H15B_23 1_555 1_555
C16_23 C17_23 1_555 1_555
C16_23 H16A_23 1_555 1_555
C16_23 H16B_23 1_555 1_555
C17_23 C18_23 1_555 1_555
C17_23 H17A_23 1_555 1_555
C17_23 H17B_23 1_555 1_555
C18_23 C19_23 1_555 1_555
C18_23 H18A_23 1_555 1_555
C18_23 H18B_23 1_555 1_555
C19_23 C20_23 1_555 1_555
C19_23 H19A_23 1_555 1_555
C19_23 H19B_23 1_555 1_555
C20_23 C21_23 1_555 1_555
C20_23 H20A_23 1_555 1_555
C20_23 H20B_23 1_555 1_555
C21_23 C22_23 1_555 1_555
C21_23 H21A_23 1_555 1_555
C21_23 H21B_23 1_555 1_555
C22_23 C23_23 1_555 1_555
C22_23 H22A_23 1_555 1_555
C22_23 H22B_23 1_555 1_555
C23_23 H23A_23 1_555 1_555
C23_23 H23B_23 1_555 1_555
C23_23 H23C_23 1_555 1_555
S1_24 C2_24 1_555 1_555
S1_24 C12_24 1_555 1_555
C1_24 C2_24 1_555 1_555
C1_24 C10_24 1_555 1_555
C1_24 H1_24 1_555 1_555
C2_24 C3_24 1_555 1_555
C3_24 C4_24 1_555 1_555
C3_24 C11_24 1_555 1_555
C4_24 C5_24 1_555 1_555
C4_24 H4_24 1_555 1_555
C5_24 C6_24 1_555 1_555
C5_24 C10_24 1_555 1_555
C6_24 C7_24 1_555 1_555
C6_24 H6_24 1_555 1_555
C7_24 C8_24 1_555 1_555
C7_24 H7_24 1_555 1_555
C8_24 C9_24 1_555 1_555
C8_24 C14_24 1_555 1_555
C9_24 C10_24 1_555 1_555
C9_24 H9_24 1_555 1_555
C11_24 C12_24 1_555 1_555
C12_24 C13_24 1_555 1_555
C13_24 H13_24 1_555 1_555
C14_24 C15_24 1_555 1_555
C14_24 H14A_24 1_555 1_555
C14_24 H14B_24 1_555 1_555
C15_24 C16_24 1_555 1_555
C15_24 H15A_24 1_555 1_555
C15_24 H15B_24 1_555 1_555
C16_24 C17_24 1_555 1_555
C16_24 H16A_24 1_555 1_555
C16_24 H16B_24 1_555 1_555
C17_24 C18_24 1_555 1_555
C17_24 H17A_24 1_555 1_555
C17_24 H17B_24 1_555 1_555
C18_24 C19_24 1_555 1_555
C18_24 H18A_24 1_555 1_555
C18_24 H18B_24 1_555 1_555
C19_24 C20_24 1_555 1_555
C19_24 H19A_24 1_555 1_555
C19_24 H19B_24 1_555 1_555
C20_24 C21_24 1_555 1_555
C20_24 H20A_24 1_555 1_555
C20_24 H20B_24 1_555 1_555
C21_24 C22_24 1_555 1_555
C21_24 H21A_24 1_555 1_555
C21_24 H21B_24 1_555 1_555
C22_24 C23_24 1_555 1_555
C22_24 H22A_24 1_555 1_555
C22_24 H22B_24 1_555 1_555
C23_24 H23A_24 1_555 1_555
C23_24 H23B_24 1_555 1_555
C23_24 H23C_24 1_555 1_555
S1_25 C2_25 1_555 1_555
S1_25 C12_25 1_555 1_555
C1_25 C2_25 1_555 1_555
C1_25 C10_25 1_555 1_555
C1_25 H1_25 1_555 1_555
C2_25 C3_25 1_555 1_555
C3_25 C4_25 1_555 1_555
C3_25 C11_25 1_555 1_555
C4_25 C5_25 1_555 1_555
C4_25 H4_25 1_555 1_555
C5_25 C6_25 1_555 1_555
C5_25 C10_25 1_555 1_555
C6_25 C7_25 1_555 1_555
C6_25 H6_25 1_555 1_555
C7_25 C8_25 1_555 1_555
C7_25 H7_25 1_555 1_555
C8_25 C9_25 1_555 1_555
C8_25 C14_25 1_555 1_555
C9_25 C10_25 1_555 1_555
C9_25 H9_25 1_555 1_555
C11_25 C12_25 1_555 1_555
C11_25 C13_26 1_555 1_555
C12_25 C13_25 1_555 1_555
C13_25 H13_25 1_555 1_555
C13_25 C11_26 1_555 1_555
C14_25 C15_25 1_555 1_555
C14_25 H14A_25 1_555 1_555
C14_25 H14B_25 1_555 1_555
C15_25 C16_25 1_555 1_555
C15_25 H15A_25 1_555 1_555
C15_25 H15B_25 1_555 1_555
C16_25 C17_25 1_555 1_555
C16_25 H16A_25 1_555 1_555
C16_25 H16B_25 1_555 1_555
C17_25 C18_25 1_555 1_555
C17_25 H17A_25 1_555 1_555
C17_25 H17B_25 1_555 1_555
C18_25 C19_25 1_555 1_555
C18_25 H18A_25 1_555 1_555
C18_25 H18B_25 1_555 1_555
C19_25 C20_25 1_555 1_555
C19_25 H19A_25 1_555 1_555
C19_25 H19B_25 1_555 1_555
C20_25 C21_25 1_555 1_555
C20_25 H20A_25 1_555 1_555
C20_25 H20B_25 1_555 1_555
C21_25 C22_25 1_555 1_555
C21_25 H21A_25 1_555 1_555
C21_25 H21B_25 1_555 1_555
C22_25 C23_25 1_555 1_555
C22_25 H22A_25 1_555 1_555
C22_25 H22B_25 1_555 1_555
C23_25 H23A_25 1_555 1_555
C23_25 H23B_25 1_555 1_555
C23_25 H23C_25 1_555 1_555
S1_26 C2_26 1_555 1_555
S1_26 C12_26 1_555 1_555
C1_26 C2_26 1_555 1_555
C1_26 C10_26 1_555 1_555
C1_26 H1_26 1_555 1_555
C2_26 C3_26 1_555 1_555
C3_26 C4_26 1_555 1_555
C3_26 C11_26 1_555 1_555
C4_26 C5_26 1_555 1_555
C4_26 H4_26 1_555 1_555
C5_26 C6_26 1_555 1_555
C5_26 C10_26 1_555 1_555
C6_26 C7_26 1_555 1_555
C6_26 H6_26 1_555 1_555
C7_26 C8_26 1_555 1_555
C7_26 H7_26 1_555 1_555
C8_26 C9_26 1_555 1_555
C8_26 C14_26 1_555 1_555
C9_26 C10_26 1_555 1_555
C9_26 H9_26 1_555 1_555
C11_26 C12_26 1_555 1_555
C12_26 C13_26 1_555 1_555
C13_26 H13_26 1_555 1_555
C14_26 C15_26 1_555 1_555
C14_26 H14A_26 1_555 1_555
C14_26 H14B_26 1_555 1_555
C15_26 C16_26 1_555 1_555
C15_26 H15A_26 1_555 1_555
C15_26 H15B_26 1_555 1_555
C16_26 C17_26 1_555 1_555
C16_26 H16A_26 1_555 1_555
C16_26 H16B_26 1_555 1_555
C17_26 C18_26 1_555 1_555
C17_26 H17A_26 1_555 1_555
C17_26 H17B_26 1_555 1_555
C18_26 C19_26 1_555 1_555
C18_26 H18A_26 1_555 1_555
C18_26 H18B_26 1_555 1_555
C19_26 C20_26 1_555 1_555
C19_26 H19A_26 1_555 1_555
C19_26 H19B_26 1_555 1_555
C20_26 C21_26 1_555 1_555
C20_26 H20A_26 1_555 1_555
C20_26 H20B_26 1_555 1_555
C21_26 C22_26 1_555 1_555
C21_26 H21A_26 1_555 1_555
C21_26 H21B_26 1_555 1_555
C22_26 C23_26 1_555 1_555
C22_26 H22A_26 1_555 1_555
C22_26 H22B_26 1_555 1_555
C23_26 H23A_26 1_555 1_555
C23_26 H23B_26 1_555 1_555
C23_26 H23C_26 1_555 1_555
S1_27 C2_27 1_555 1_555
S1_27 C12_27 1_555 1_555
C1_27 C2_27 1_555 1_555
C1_27 C10_27 1_555 1_555
C1_27 H1_27 1_555 1_555
C2_27 C3_27 1_555 1_555
C3_27 C4_27 1_555 1_555
C3_27 C11_27 1_555 1_555
C4_27 C5_27 1_555 1_555
C4_27 H4_27 1_555 1_555
C5_27 C6_27 1_555 1_555
C5_27 C10_27 1_555 1_555
C6_27 C7_27 1_555 1_555
C6_27 H6_27 1_555 1_555
C7_27 C8_27 1_555 1_555
C7_27 H7_27 1_555 1_555
C8_27 C9_27 1_555 1_555
C8_27 C14_27 1_555 1_555
C9_27 C10_27 1_555 1_555
C9_27 H9_27 1_555 1_555
C11_27 C12_27 1_555 1_555
C11_27 C13_28 1_555 1_555
C12_27 C13_27 1_555 1_555
C13_27 H13_27 1_555 1_555
C13_27 C11_28 1_555 1_555
C14_27 C15_27 1_555 1_555
C14_27 H14A_27 1_555 1_555
C14_27 H14B_27 1_555 1_555
C15_27 C16_27 1_555 1_555
C15_27 H15A_27 1_555 1_555
C15_27 H15B_27 1_555 1_555
C16_27 C17_27 1_555 1_555
C16_27 H16A_27 1_555 1_555
C16_27 H16B_27 1_555 1_555
C17_27 C18_27 1_555 1_555
C17_27 H17A_27 1_555 1_555
C17_27 H17B_27 1_555 1_555
C18_27 C19_27 1_555 1_555
C18_27 H18A_27 1_555 1_555
C18_27 H18B_27 1_555 1_555
C19_27 C20_27 1_555 1_555
C19_27 H19A_27 1_555 1_555
C19_27 H19B_27 1_555 1_555
C20_27 C21_27 1_555 1_555
C20_27 H20A_27 1_555 1_555
C20_27 H20B_27 1_555 1_555
C21_27 C22_27 1_555 1_555
C21_27 H21A_27 1_555 1_555
C21_27 H21B_27 1_555 1_555
C22_27 C23_27 1_555 1_555
C22_27 H22A_27 1_555 1_555
C22_27 H22B_27 1_555 1_555
C23_27 H23A_27 1_555 1_555
C23_27 H23B_27 1_555 1_555
C23_27 H23C_27 1_555 1_555
S1_28 C2_28 1_555 1_555
S1_28 C12_28 1_555 1_555
C1_28 C2_28 1_555 1_555
C1_28 C10_28 1_555 1_555
C1_28 H1_28 1_555 1_555
C2_28 C3_28 1_555 1_555
C3_28 C4_28 1_555 1_555
C3_28 C11_28 1_555 1_555
C4_28 C5_28 1_555 1_555
C4_28 H4_28 1_555 1_555
C5_28 C6_28 1_555 1_555
C5_28 C10_28 1_555 1_555
C6_28 C7_28 1_555 1_555
C6_28 H6_28 1_555 1_555
C7_28 C8_28 1_555 1_555
C7_28 H7_28 1_555 1_555
C8_28 C9_28 1_555 1_555
C8_28 C14_28 1_555 1_555
C9_28 C10_28 1_555 1_555
C9_28 H9_28 1_555 1_555
C11_28 C12_28 1_555 1_555
C12_28 C13_28 1_555 1_555
C13_28 H13_28 1_555 1_555
C14_28 C15_28 1_555 1_555
C14_28 H14A_28 1_555 1_555
C14_28 H14B_28 1_555 1_555
C15_28 C16_28 1_555 1_555
C15_28 H15A_28 1_555 1_555
C15_28 H15B_28 1_555 1_555
C16_28 C17_28 1_555 1_555
C16_28 H16A_28 1_555 1_555
C16_28 H16B_28 1_555 1_555
C17_28 C18_28 1_555 1_555
C17_28 H17A_28 1_555 1_555
C17_28 H17B_28 1_555 1_555
C18_28 C19_28 1_555 1_555
C18_28 H18A_28 1_555 1_555
C18_28 H18B_28 1_555 1_555
C19_28 C20_28 1_555 1_555
C19_28 H19A_28 1_555 1_555
C19_28 H19B_28 1_555 1_555
C20_28 C21_28 1_555 1_555
C20_28 H20A_28 1_555 1_555
C20_28 H20B_28 1_555 1_555
C21_28 C22_28 1_555 1_555
C21_28 H21A_28 1_555 1_555
C21_28 H21B_28 1_555 1_555
C22_28 C23_28 1_555 1_555
C22_28 H22A_28 1_555 1_555
C22_28 H22B_28 1_555 1_555
C23_28 H23A_28 1_555 1_555
C23_28 H23B_28 1_555 1_555
C23_28 H23C_28 1_555 1_555
S1_29 C2_29 1_555 1_555
S1_29 C12_29 1_555 1_555
C1_29 C2_29 1_555 1_555
C1_29 C10_29 1_555 1_555
C1_29 H1_29 1_555 1_555
C2_29 C3_29 1_555 1_555
C3_29 C4_29 1_555 1_555
C3_29 C11_29 1_555 1_555
C4_29 C5_29 1_555 1_555
C4_29 H4_29 1_555 1_555
C5_29 C6_29 1_555 1_555
C5_29 C10_29 1_555 1_555
C6_29 C7_29 1_555 1_555
C6_29 H6_29 1_555 1_555
C7_29 C8_29 1_555 1_555
C7_29 H7_29 1_555 1_555
C8_29 C9_29 1_555 1_555
C8_29 C14_29 1_555 1_555
C9_29 C10_29 1_555 1_555
C9_29 H9_29 1_555 1_555
C11_29 C12_29 1_555 1_555
C11_29 C13_30 1_555 1_555
C12_29 C13_29 1_555 1_555
C13_29 H13_29 1_555 1_555
C13_29 C11_30 1_555 1_555
C14_29 C15_29 1_555 1_555
C14_29 H14A_29 1_555 1_555
C14_29 H14B_29 1_555 1_555
C15_29 C16_29 1_555 1_555
C15_29 H15A_29 1_555 1_555
C15_29 H15B_29 1_555 1_555
C16_29 C17_29 1_555 1_555
C16_29 H16A_29 1_555 1_555
C16_29 H16B_29 1_555 1_555
C17_29 C18_29 1_555 1_555
C17_29 H17A_29 1_555 1_555
C17_29 H17B_29 1_555 1_555
C18_29 C19_29 1_555 1_555
C18_29 H18A_29 1_555 1_555
C18_29 H18B_29 1_555 1_555
C19_29 C20_29 1_555 1_555
C19_29 H19A_29 1_555 1_555
C19_29 H19B_29 1_555 1_555
C20_29 C21_29 1_555 1_555
C20_29 H20A_29 1_555 1_555
C20_29 H20B_29 1_555 1_555
C21_29 C22_29 1_555 1_555
C21_29 H21A_29 1_555 1_555
C21_29 H21B_29 1_555 1_555
C22_29 C23_29 1_555 1_555
C22_29 H22A_29 1_555 1_555
C22_29 H22B_29 1_555 1_555
C23_29 H23A_29 1_555 1_555
C23_29 H23B_29 1_555 1_555
C23_29 H23C_29 1_555 1_555
S1_30 C2_30 1_555 1_555
S1_30 C12_30 1_555 1_555
C1_30 C2_30 1_555 1_555
C1_30 C10_30 1_555 1_555
C1_30 H1_30 1_555 1_555
C2_30 C3_30 1_555 1_555
C3_30 C4_30 1_555 1_555
C3_30 C11_30 1_555 1_555
C4_30 C5_30 1_555 1_555
C4_30 H4_30 1_555 1_555
C5_30 C6_30 1_555 1_555
C5_30 C10_30 1_555 1_555
C6_30 C7_30 1_555 1_555
C6_30 H6_30 1_555 1_555
C7_30 C8_30 1_555 1_555
C7_30 H7_30 1_555 1_555
C8_30 C9_30 1_555 1_555
C8_30 C14_30 1_555 1_555
C9_30 C10_30 1_555 1_555
C9_30 H9_30 1_555 1_555
C11_30 C12_30 1_555 1_555
C12_30 C13_30 1_555 1_555
C13_30 H13_30 1_555 1_555
C14_30 C15_30 1_555 1_555
C14_30 H14A_30 1_555 1_555
C14_30 H14B_30 1_555 1_555
C15_30 C16_30 1_555 1_555
C15_30 H15A_30 1_555 1_555
C15_30 H15B_30 1_555 1_555
C16_30 C17_30 1_555 1_555
C16_30 H16A_30 1_555 1_555
C16_30 H16B_30 1_555 1_555
C17_30 C18_30 1_555 1_555
C17_30 H17A_30 1_555 1_555
C17_30 H17B_30 1_555 1_555
C18_30 C19_30 1_555 1_555
C18_30 H18A_30 1_555 1_555
C18_30 H18B_30 1_555 1_555
C19_30 C20_30 1_555 1_555
C19_30 H19A_30 1_555 1_555
C19_30 H19B_30 1_555 1_555
C20_30 C21_30 1_555 1_555
C20_30 H20A_30 1_555 1_555
C20_30 H20B_30 1_555 1_555
C21_30 C22_30 1_555 1_555
C21_30 H21A_30 1_555 1_555
C21_30 H21B_30 1_555 1_555
C22_30 C23_30 1_555 1_555
C22_30 H22A_30 1_555 1_555
C22_30 H22B_30 1_555 1_555
C23_30 H23A_30 1_555 1_555
C23_30 H23B_30 1_555 1_555
C23_30 H23C_30 1_555 1_555
S1_31 C2_31 1_555 1_555
S1_31 C12_31 1_555 1_555
C1_31 C2_31 1_555 1_555
C1_31 C10_31 1_555 1_555
C1_31 H1_31 1_555 1_555
C2_31 C3_31 1_555 1_555
C3_31 C4_31 1_555 1_555
C3_31 C11_31 1_555 1_555
C4_31 C5_31 1_555 1_555
C4_31 H4_31 1_555 1_555
C5_31 C6_31 1_555 1_555
C5_31 C10_31 1_555 1_555
C6_31 C7_31 1_555 1_555
C6_31 H6_31 1_555 1_555
C7_31 C8_31 1_555 1_555
C7_31 H7_31 1_555 1_555
C8_31 C9_31 1_555 1_555
C8_31 C14_31 1_555 1_555
C9_31 C10_31 1_555 1_555
C9_31 H9_31 1_555 1_555
C11_31 C12_31 1_555 1_555
C11_31 C13_32 1_555 1_555
C12_31 C13_31 1_555 1_555
C13_31 H13_31 1_555 1_555
C13_31 C11_32 1_555 1_555
C14_31 C15_31 1_555 1_555
C14_31 H14A_31 1_555 1_555
C14_31 H14B_31 1_555 1_555
C15_31 C16_31 1_555 1_555
C15_31 H15A_31 1_555 1_555
C15_31 H15B_31 1_555 1_555
C16_31 C17_31 1_555 1_555
C16_31 H16A_31 1_555 1_555
C16_31 H16B_31 1_555 1_555
C17_31 C18_31 1_555 1_555
C17_31 H17A_31 1_555 1_555
C17_31 H17B_31 1_555 1_555
C18_31 C19_31 1_555 1_555
C18_31 H18A_31 1_555 1_555
C18_31 H18B_31 1_555 1_555
C19_31 C20_31 1_555 1_555
C19_31 H19A_31 1_555 1_555
C19_31 H19B_31 1_555 1_555
C20_31 C21_31 1_555 1_555
C20_31 H20A_31 1_555 1_555
C20_31 H20B_31 1_555 1_555
C21_31 C22_31 1_555 1_555
C21_31 H21A_31 1_555 1_555
C21_31 H21B_31 1_555 1_555
C22_31 C23_31 1_555 1_555
C22_31 H22A_31 1_555 1_555
C22_31 H22B_31 1_555 1_555
C23_31 H23A_31 1_555 1_555
C23_31 H23B_31 1_555 1_555
C23_31 H23C_31 1_555 1_555
S1_32 C2_32 1_555 1_555
S1_32 C12_32 1_555 1_555
C1_32 C2_32 1_555 1_555
C1_32 C10_32 1_555 1_555
C1_32 H1_32 1_555 1_555
C2_32 C3_32 1_555 1_555
C3_32 C4_32 1_555 1_555
C3_32 C11_32 1_555 1_555
C4_32 C5_32 1_555 1_555
C4_32 H4_32 1_555 1_555
C5_32 C6_32 1_555 1_555
C5_32 C10_32 1_555 1_555
C6_32 C7_32 1_555 1_555
C6_32 H6_32 1_555 1_555
C7_32 C8_32 1_555 1_555
C7_32 H7_32 1_555 1_555
C8_32 C9_32 1_555 1_555
C8_32 C14_32 1_555 1_555
C9_32 C10_32 1_555 1_555
C9_32 H9_32 1_555 1_555
C11_32 C12_32 1_555 1_555
C12_32 C13_32 1_555 1_555
C13_32 H13_32 1_555 1_555
C14_32 C15_32 1_555 1_555
C14_32 H14A_32 1_555 1_555
C14_32 H14B_32 1_555 1_555
C15_32 C16_32 1_555 1_555
C15_32 H15A_32 1_555 1_555
C15_32 H15B_32 1_555 1_555
C16_32 C17_32 1_555 1_555
C16_32 H16A_32 1_555 1_555
C16_32 H16B_32 1_555 1_555
C17_32 C18_32 1_555 1_555
C17_32 H17A_32 1_555 1_555
C17_32 H17B_32 1_555 1_555
C18_32 C19_32 1_555 1_555
C18_32 H18A_32 1_555 1_555
C18_32 H18B_32 1_555 1_555
C19_32 C20_32 1_555 1_555
C19_32 H19A_32 1_555 1_555
C19_32 H19B_32 1_555 1_555
C20_32 C21_32 1_555 1_555
C20_32 H20A_32 1_555 1_555
C20_32 H20B_32 1_555 1_555
C21_32 C22_32 1_555 1_555
C21_32 H21A_32 1_555 1_555
C21_32 H21B_32 1_555 1_555
C22_32 C23_32 1_555 1_555
C22_32 H22A_32 1_555 1_555
C22_32 H22B_32 1_555 1_555
C23_32 H23A_32 1_555 1_555
C23_32 H23B_32 1_555 1_555
C23_32 H23C_32 1_555 1_555
S1_33 C2_33 1_555 1_555
S1_33 C12_33 1_555 1_555
C1_33 C2_33 1_555 1_555
C1_33 C10_33 1_555 1_555
C1_33 H1_33 1_555 1_555
C2_33 C3_33 1_555 1_555
C3_33 C4_33 1_555 1_555
C3_33 C11_33 1_555 1_555
C4_33 C5_33 1_555 1_555
C4_33 H4_33 1_555 1_555
C5_33 C6_33 1_555 1_555
C5_33 C10_33 1_555 1_555
C6_33 C7_33 1_555 1_555
C6_33 H6_33 1_555 1_555
C7_33 C8_33 1_555 1_555
C7_33 H7_33 1_555 1_555
C8_33 C9_33 1_555 1_555
C8_33 C14_33 1_555 1_555
C9_33 C10_33 1_555 1_555
C9_33 H9_33 1_555 1_555
C11_33 C12_33 1_555 1_555
C11_33 C13_34 1_555 1_555
C12_33 C13_33 1_555 1_555
C13_33 H13_33 1_555 1_555
C13_33 C11_34 1_555 1_555
C14_33 C15_33 1_555 1_555
C14_33 H14A_33 1_555 1_555
C14_33 H14B_33 1_555 1_555
C15_33 C16_33 1_555 1_555
C15_33 H15A_33 1_555 1_555
C15_33 H15B_33 1_555 1_555
C16_33 C17_33 1_555 1_555
C16_33 H16A_33 1_555 1_555
C16_33 H16B_33 1_555 1_555
C17_33 C18_33 1_555 1_555
C17_33 H17A_33 1_555 1_555
C17_33 H17B_33 1_555 1_555
C18_33 C19_33 1_555 1_555
C18_33 H18A_33 1_555 1_555
C18_33 H18B_33 1_555 1_555
C19_33 C20_33 1_555 1_555
C19_33 H19A_33 1_555 1_555
C19_33 H19B_33 1_555 1_555
C20_33 C21_33 1_555 1_555
C20_33 H20A_33 1_555 1_555
C20_33 H20B_33 1_555 1_555
C21_33 C22_33 1_555 1_555
C21_33 H21A_33 1_555 1_555
C21_33 H21B_33 1_555 1_555
C22_33 C23_33 1_555 1_555
C22_33 H22A_33 1_555 1_555
C22_33 H22B_33 1_555 1_555
C23_33 H23A_33 1_555 1_555
C23_33 H23B_33 1_555 1_555
C23_33 H23C_33 1_555 1_555
S1_34 C2_34 1_555 1_555
S1_34 C12_34 1_555 1_555
C1_34 C2_34 1_555 1_555
C1_34 C10_34 1_555 1_555
C1_34 H1_34 1_555 1_555
C2_34 C3_34 1_555 1_555
C3_34 C4_34 1_555 1_555
C3_34 C11_34 1_555 1_555
C4_34 C5_34 1_555 1_555
C4_34 H4_34 1_555 1_555
C5_34 C6_34 1_555 1_555
C5_34 C10_34 1_555 1_555
C6_34 C7_34 1_555 1_555
C6_34 H6_34 1_555 1_555
C7_34 C8_34 1_555 1_555
C7_34 H7_34 1_555 1_555
C8_34 C9_34 1_555 1_555
C8_34 C14_34 1_555 1_555
C9_34 C10_34 1_555 1_555
C9_34 H9_34 1_555 1_555
C11_34 C12_34 1_555 1_555
C12_34 C13_34 1_555 1_555
C13_34 H13_34 1_555 1_555
C14_34 C15_34 1_555 1_555
C14_34 H14A_34 1_555 1_555
C14_34 H14B_34 1_555 1_555
C15_34 C16_34 1_555 1_555
C15_34 H15A_34 1_555 1_555
C15_34 H15B_34 1_555 1_555
C16_34 C17_34 1_555 1_555
C16_34 H16A_34 1_555 1_555
C16_34 H16B_34 1_555 1_555
C17_34 C18_34 1_555 1_555
C17_34 H17A_34 1_555 1_555
C17_34 H17B_34 1_555 1_555
C18_34 C19_34 1_555 1_555
C18_34 H18A_34 1_555 1_555
C18_34 H18B_34 1_555 1_555
C19_34 C20_34 1_555 1_555
C19_34 H19A_34 1_555 1_555
C19_34 H19B_34 1_555 1_555
C20_34 C21_34 1_555 1_555
C20_34 H20A_34 1_555 1_555
C20_34 H20B_34 1_555 1_555
C21_34 C22_34 1_555 1_555
C21_34 H21A_34 1_555 1_555
C21_34 H21B_34 1_555 1_555
C22_34 C23_34 1_555 1_555
C22_34 H22A_34 1_555 1_555
C22_34 H22B_34 1_555 1_555
C23_34 H23A_34 1_555 1_555
C23_34 H23B_34 1_555 1_555
C23_34 H23C_34 1_555 1_555
S1_35 C2_35 1_555 1_555
S1_35 C12_35 1_555 1_555
C1_35 C2_35 1_555 1_555
C1_35 C10_35 1_555 1_555
C1_35 H1_35 1_555 1_555
C2_35 C3_35 1_555 1_555
C3_35 C4_35 1_555 1_555
C3_35 C11_35 1_555 1_555
C4_35 C5_35 1_555 1_555
C4_35 H4_35 1_555 1_555
C5_35 C6_35 1_555 1_555
C5_35 C10_35 1_555 1_555
C6_35 C7_35 1_555 1_555
C6_35 H6_35 1_555 1_555
C7_35 C8_35 1_555 1_555
C7_35 H7_35 1_555 1_555
C8_35 C9_35 1_555 1_555
C8_35 C14_35 1_555 1_555
C9_35 C10_35 1_555 1_555
C9_35 H9_35 1_555 1_555
C11_35 C12_35 1_555 1_555
C11_35 C13_36 1_555 1_555
C12_35 C13_35 1_555 1_555
C13_35 H13_35 1_555 1_555
C13_35 C11_36 1_555 1_555
C14_35 C15_35 1_555 1_555
C14_35 H14A_35 1_555 1_555
C14_35 H14B_35 1_555 1_555
C15_35 C16_35 1_555 1_555
C15_35 H15A_35 1_555 1_555
C15_35 H15B_35 1_555 1_555
C16_35 C17_35 1_555 1_555
C16_35 H16A_35 1_555 1_555
C16_35 H16B_35 1_555 1_555
C17_35 C18_35 1_555 1_555
C17_35 H17A_35 1_555 1_555
C17_35 H17B_35 1_555 1_555
C18_35 C19_35 1_555 1_555
C18_35 H18A_35 1_555 1_555
C18_35 H18B_35 1_555 1_555
C19_35 C20_35 1_555 1_555
C19_35 H19A_35 1_555 1_555
C19_35 H19B_35 1_555 1_555
C20_35 C21_35 1_555 1_555
C20_35 H20A_35 1_555 1_555
C20_35 H20B_35 1_555 1_555
C21_35 C22_35 1_555 1_555
C21_35 H21A_35 1_555 1_555
C21_35 H21B_35 1_555 1_555
C22_35 C23_35 1_555 1_555
C22_35 H22A_35 1_555 1_555
C22_35 H22B_35 1_555 1_555
C23_35 H23A_35 1_555 1_555
C23_35 H23B_35 1_555 1_555
C23_35 H23C_35 1_555 1_555
S1_36 C2_36 1_555 1_555
S1_36 C12_36 1_555 1_555
C1_36 C2_36 1_555 1_555
C1_36 C10_36 1_555 1_555
C1_36 H1_36 1_555 1_555
C2_36 C3_36 1_555 1_555
C3_36 C4_36 1_555 1_555
C3_36 C11_36 1_555 1_555
C4_36 C5_36 1_555 1_555
C4_36 H4_36 1_555 1_555
C5_36 C6_36 1_555 1_555
C5_36 C10_36 1_555 1_555
C6_36 C7_36 1_555 1_555
C6_36 H6_36 1_555 1_555
C7_36 C8_36 1_555 1_555
C7_36 H7_36 1_555 1_555
C8_36 C9_36 1_555 1_555
C8_36 C14_36 1_555 1_555
C9_36 C10_36 1_555 1_555
C9_36 H9_36 1_555 1_555
C11_36 C12_36 1_555 1_555
C12_36 C13_36 1_555 1_555
C13_36 H13_36 1_555 1_555
C14_36 C15_36 1_555 1_555
C14_36 H14A_36 1_555 1_555
C14_36 H14B_36 1_555 1_555
C15_36 C16_36 1_555 1_555
C15_36 H15A_36 1_555 1_555
C15_36 H15B_36 1_555 1_555
C16_36 C17_36 1_555 1_555
C16_36 H16A_36 1_555 1_555
C16_36 H16B_36 1_555 1_555
C17_36 C18_36 1_555 1_555
C17_36 H17A_36 1_555 1_555
C17_36 H17B_36 1_555 1_555
C18_36 C19_36 1_555 1_555
C18_36 H18A_36 1_555 1_555
C18_36 H18B_36 1_555 1_555
C19_36 C20_36 1_555 1_555
C19_36 H19A_36 1_555 1_555
C19_36 H19B_36 1_555 1_555
C20_36 C21_36 1_555 1_555
C20_36 H20A_36 1_555 1_555
C20_36 H20B_36 1_555 1_555
C21_36 C22_36 1_555 1_555
C21_36 H21A_36 1_555 1_555
C21_36 H21B_36 1_555 1_555
C22_36 C23_36 1_555 1_555
C22_36 H22A_36 1_555 1_555
C22_36 H22B_36 1_555 1_555
C23_36 H23A_36 1_555 1_555
C23_36 H23B_36 1_555 1_555
C23_36 H23C_36 1_555 1_555
S1_37 C2_37 1_555 1_555
S1_37 C12_37 1_555 1_555
C1_37 C2_37 1_555 1_555
C1_37 C10_37 1_555 1_555
C1_37 H1_37 1_555 1_555
C2_37 C3_37 1_555 1_555
C3_37 C4_37 1_555 1_555
C3_37 C11_37 1_555 1_555
C4_37 C5_37 1_555 1_555
C4_37 H4_37 1_555 1_555
C5_37 C6_37 1_555 1_555
C5_37 C10_37 1_555 1_555
C6_37 C7_37 1_555 1_555
C6_37 H6_37 1_555 1_555
C7_37 C8_37 1_555 1_555
C7_37 H7_37 1_555 1_555
C8_37 C9_37 1_555 1_555
C8_37 C14_37 1_555 1_555
C9_37 C10_37 1_555 1_555
C9_37 H9_37 1_555 1_555
C11_37 C12_37 1_555 1_555
C11_37 C13_38 1_555 1_555
C12_37 C13_37 1_555 1_555
C13_37 H13_37 1_555 1_555
C13_37 C11_38 1_555 1_555
C14_37 C15_37 1_555 1_555
C14_37 H14A_37 1_555 1_555
C14_37 H14B_37 1_555 1_555
C15_37 C16_37 1_555 1_555
C15_37 H15A_37 1_555 1_555
C15_37 H15B_37 1_555 1_555
C16_37 C17_37 1_555 1_555
C16_37 H16A_37 1_555 1_555
C16_37 H16B_37 1_555 1_555
C17_37 C18_37 1_555 1_555
C17_37 H17A_37 1_555 1_555
C17_37 H17B_37 1_555 1_555
C18_37 C19_37 1_555 1_555
C18_37 H18A_37 1_555 1_555
C18_37 H18B_37 1_555 1_555
C19_37 C20_37 1_555 1_555
C19_37 H19A_37 1_555 1_555
C19_37 H19B_37 1_555 1_555
C20_37 C21_37 1_555 1_555
C20_37 H20A_37 1_555 1_555
C20_37 H20B_37 1_555 1_555
C21_37 C22_37 1_555 1_555
C21_37 H21A_37 1_555 1_555
C21_37 H21B_37 1_555 1_555
C22_37 C23_37 1_555 1_555
C22_37 H22A_37 1_555 1_555
C22_37 H22B_37 1_555 1_555
C23_37 H23A_37 1_555 1_555
C23_37 H23B_37 1_555 1_555
C23_37 H23C_37 1_555 1_555
S1_38 C2_38 1_555 1_555
S1_38 C12_38 1_555 1_555
C1_38 C2_38 1_555 1_555
C1_38 C10_38 1_555 1_555
C1_38 H1_38 1_555 1_555
C2_38 C3_38 1_555 1_555
C3_38 C4_38 1_555 1_555
C3_38 C11_38 1_555 1_555
C4_38 C5_38 1_555 1_555
C4_38 H4_38 1_555 1_555
C5_38 C6_38 1_555 1_555
C5_38 C10_38 1_555 1_555
C6_38 C7_38 1_555 1_555
C6_38 H6_38 1_555 1_555
C7_38 C8_38 1_555 1_555
C7_38 H7_38 1_555 1_555
C8_38 C9_38 1_555 1_555
C8_38 C14_38 1_555 1_555
C9_38 C10_38 1_555 1_555
C9_38 H9_38 1_555 1_555
C11_38 C12_38 1_555 1_555
C12_38 C13_38 1_555 1_555
C13_38 H13_38 1_555 1_555
C14_38 C15_38 1_555 1_555
C14_38 H14A_38 1_555 1_555
C14_38 H14B_38 1_555 1_555
C15_38 C16_38 1_555 1_555
C15_38 H15A_38 1_555 1_555
C15_38 H15B_38 1_555 1_555
C16_38 C17_38 1_555 1_555
C16_38 H16A_38 1_555 1_555
C16_38 H16B_38 1_555 1_555
C17_38 C18_38 1_555 1_555
C17_38 H17A_38 1_555 1_555
C17_38 H17B_38 1_555 1_555
C18_38 C19_38 1_555 1_555
C18_38 H18A_38 1_555 1_555
C18_38 H18B_38 1_555 1_555
C19_38 C20_38 1_555 1_555
C19_38 H19A_38 1_555 1_555
C19_38 H19B_38 1_555 1_555
C20_38 C21_38 1_555 1_555
C20_38 H20A_38 1_555 1_555
C20_38 H20B_38 1_555 1_555
C21_38 C22_38 1_555 1_555
C21_38 H21A_38 1_555 1_555
C21_38 H21B_38 1_555 1_555
C22_38 C23_38 1_555 1_555
C22_38 H22A_38 1_555 1_555
C22_38 H22B_38 1_555 1_555
C23_38 H23A_38 1_555 1_555
C23_38 H23B_38 1_555 1_555
C23_38 H23C_38 1_555 1_555
S1_39 C2_39 1_555 1_555
S1_39 C12_39 1_555 1_555
C1_39 C2_39 1_555 1_555
C1_39 C10_39 1_555 1_555
C1_39 H1_39 1_555 1_555
C2_39 C3_39 1_555 1_555
C3_39 C4_39 1_555 1_555
C3_39 C11_39 1_555 1_555
C4_39 C5_39 1_555 1_555
C4_39 H4_39 1_555 1_555
C5_39 C6_39 1_555 1_555
C5_39 C10_39 1_555 1_555
C6_39 C7_39 1_555 1_555
C6_39 H6_39 1_555 1_555
C7_39 C8_39 1_555 1_555
C7_39 H7_39 1_555 1_555
C8_39 C9_39 1_555 1_555
C8_39 C14_39 1_555 1_555
C9_39 C10_39 1_555 1_555
C9_39 H9_39 1_555 1_555
C11_39 C12_39 1_555 1_555
C11_39 C13_40 1_555 1_555
C12_39 C13_39 1_555 1_555
C13_39 H13_39 1_555 1_555
C13_39 C11_40 1_555 1_555
C14_39 C15_39 1_555 1_555
C14_39 H14A_39 1_555 1_555
C14_39 H14B_39 1_555 1_555
C15_39 C16_39 1_555 1_555
C15_39 H15A_39 1_555 1_555
C15_39 H15B_39 1_555 1_555
C16_39 C17_39 1_555 1_555
C16_39 H16A_39 1_555 1_555
C16_39 H16B_39 1_555 1_555
C17_39 C18_39 1_555 1_555
C17_39 H17A_39 1_555 1_555
C17_39 H17B_39 1_555 1_555
C18_39 C19_39 1_555 1_555
C18_39 H18A_39 1_555 1_555
C18_39 H18B_39 1_555 1_555
C19_39 C20_39 1_555 1_555
C19_39 H19A_39 1_555 1_555
C19_39 H19B_39 1_555 1_555
C20_39 C21_39 1_555 1_555
C20_39 H20A_39 1_555 1_555
C20_39 H20B_39 1_555 1_555
C21_39 C22_39 1_555 1_555
C21_39 H21A_39 1_555 1_555
C21_39 H21B_39 1_555 1_555
C22_39 C23_39 1_555 1_555
C22_39 H22A_39 1_555 1_555
C22_39 H22B_39 1_555 1_555
C23_39 H23A_39 1_555 1_555
C23_39 H23B_39 1_555 1_555
C23_39 H23C_39 1_555 1_555
S1_40 C2_40 1_555 1_555
S1_40 C12_40 1_555 1_555
C1_40 C2_40 1_555 1_555
C1_40 C10_40 1_555 1_555
C1_40 H1_40 1_555 1_555
C2_40 C3_40 1_555 1_555
C3_40 C4_40 1_555 1_555
C3_40 C11_40 1_555 1_555
C4_40 C5_40 1_555 1_555
C4_40 H4_40 1_555 1_555
C5_40 C6_40 1_555 1_555
C5_40 C10_40 1_555 1_555
C6_40 C7_40 1_555 1_555
C6_40 H6_40 1_555 1_555
C7_40 C8_40 1_555 1_555
C7_40 H7_40 1_555 1_555
C8_40 C9_40 1_555 1_555
C8_40 C14_40 1_555 1_555
C9_40 C10_40 1_555 1_555
C9_40 H9_40 1_555 1_555
C11_40 C12_40 1_555 1_555
C12_40 C13_40 1_555 1_555
C13_40 H13_40 1_555 1_555
C14_40 C15_40 1_555 1_555
C14_40 H14A_40 1_555 1_555
C14_40 H14B_40 1_555 1_555
C15_40 C16_40 1_555 1_555
C15_40 H15A_40 1_555 1_555
C15_40 H15B_40 1_555 1_555
C16_40 C17_40 1_555 1_555
C16_40 H16A_40 1_555 1_555
C16_40 H16B_40 1_555 1_555
C17_40 C18_40 1_555 1_555
C17_40 H17A_40 1_555 1_555
C17_40 H17B_40 1_555 1_555
C18_40 C19_40 1_555 1_555
C18_40 H18A_40 1_555 1_555
C18_40 H18B_40 1_555 1_555
C19_40 C20_40 1_555 1_555
C19_40 H19A_40 1_555 1_555
C19_40 H19B_40 1_555 1_555
C20_40 C21_40 1_555 1_555
C20_40 H20A_40 1_555 1_555
C20_40 H20B_40 1_555 1_555
C21_40 C22_40 1_555 1_555
C21_40 H21A_40 1_555 1_555
C21_40 H21B_40 1_555 1_555
C22_40 C23_40 1_555 1_555
C22_40 H22A_40 1_555 1_555
C22_40 H22B_40 1_555 1_555
C23_40 H23A_40 1_555 1_555
C23_40 H23B_40 1_555 1_555
C23_40 H23C_40 1_555 1_555
S1_41 C2_41 1_555 1_555
S1_41 C12_41 1_555 1_555
C1_41 C2_41 1_555 1_555
C1_41 C10_41 1_555 1_555
C1_41 H1_41 1_555 1_555
C2_41 C3_41 1_555 1_555
C3_41 C4_41 1_555 1_555
C3_41 C11_41 1_555 1_555
C4_41 C5_41 1_555 1_555
C4_41 H4_41 1_555 1_555
C5_41 C6_41 1_555 1_555
C5_41 C10_41 1_555 1_555
C6_41 C7_41 1_555 1_555
C6_41 H6_41 1_555 1_555
C7_41 C8_41 1_555 1_555
C7_41 H7_41 1_555 1_555
C8_41 C9_41 1_555 1_555
C8_41 C14_41 1_555 1_555
C9_41 C10_41 1_555 1_555
C9_41 H9_41 1_555 1_555
C11_41 C12_41 1_555 1_555
C11_41 C13_42 1_555 1_555
C12_41 C13_41 1_555 1_555
C13_41 H13_41 1_555 1_555
C13_41 C11_42 1_555 1_555
C14_41 C15_41 1_555 1_555
C14_41 H14A_41 1_555 1_555
C14_41 H14B_41 1_555 1_555
C15_41 C16_41 1_555 1_555
C15_41 H15A_41 1_555 1_555
C15_41 H15B_41 1_555 1_555
C16_41 C17_41 1_555 1_555
C16_41 H16A_41 1_555 1_555
C16_41 H16B_41 1_555 1_555
C17_41 C18_41 1_555 1_555
C17_41 H17A_41 1_555 1_555
C17_41 H17B_41 1_555 1_555
C18_41 C19_41 1_555 1_555
C18_41 H18A_41 1_555 1_555
C18_41 H18B_41 1_555 1_555
C19_41 C20_41 1_555 1_555
C19_41 H19A_41 1_555 1_555
C19_41 H19B_41 1_555 1_555
C20_41 C21_41 1_555 1_555
C20_41 H20A_41 1_555 1_555
C20_41 H20B_41 1_555 1_555
C21_41 C22_41 1_555 1_555
C21_41 H21A_41 1_555 1_555
C21_41 H21B_41 1_555 1_555
C22_41 C23_41 1_555 1_555
C22_41 H22A_41 1_555 1_555
C22_41 H22B_41 1_555 1_555
C23_41 H23A_41 1_555 1_555
C23_41 H23B_41 1_555 1_555
C23_41 H23C_41 1_555 1_555
S1_42 C2_42 1_555 1_555
S1_42 C12_42 1_555 1_555
C1_42 C2_42 1_555 1_555
C1_42 C10_42 1_555 1_555
C1_42 H1_42 1_555 1_555
C2_42 C3_42 1_555 1_555
C3_42 C4_42 1_555 1_555
C3_42 C11_42 1_555 1_555
C4_42 C5_42 1_555 1_555
C4_42 H4_42 1_555 1_555
C5_42 C6_42 1_555 1_555
C5_42 C10_42 1_555 1_555
C6_42 C7_42 1_555 1_555
C6_42 H6_42 1_555 1_555
C7_42 C8_42 1_555 1_555
C7_42 H7_42 1_555 1_555
C8_42 C9_42 1_555 1_555
C8_42 C14_42 1_555 1_555
C9_42 C10_42 1_555 1_555
C9_42 H9_42 1_555 1_555
C11_42 C12_42 1_555 1_555
C12_42 C13_42 1_555 1_555
C13_42 H13_42 1_555 1_555
C14_42 C15_42 1_555 1_555
C14_42 H14A_42 1_555 1_555
C14_42 H14B_42 1_555 1_555
C15_42 C16_42 1_555 1_555
C15_42 H15A_42 1_555 1_555
C15_42 H15B_42 1_555 1_555
C16_42 C17_42 1_555 1_555
C16_42 H16A_42 1_555 1_555
C16_42 H16B_42 1_555 1_555
C17_42 C18_42 1_555 1_555
C17_42 H17A_42 1_555 1_555
C17_42 H17B_42 1_555 1_555
C18_42 C19_42 1_555 1_555
C18_42 H18A_42 1_555 1_555
C18_42 H18B_42 1_555 1_555
C19_42 C20_42 1_555 1_555
C19_42 H19A_42 1_555 1_555
C19_42 H19B_42 1_555 1_555
C20_42 C21_42 1_555 1_555
C20_42 H20A_42 1_555 1_555
C20_42 H20B_42 1_555 1_555
C21_42 C22_42 1_555 1_555
C21_42 H21A_42 1_555 1_555
C21_42 H21B_42 1_555 1_555
C22_42 C23_42 1_555 1_555
C22_42 H22A_42 1_555 1_555
C22_42 H22B_42 1_555 1_555
C23_42 H23A_42 1_555 1_555
C23_42 H23B_42 1_555 1_555
C23_42 H23C_42 1_555 1_555
S1_43 C2_43 1_555 1_555
S1_43 C12_43 1_555 1_555
C1_43 C2_43 1_555 1_555
C1_43 C10_43 1_555 1_555
C1_43 H1_43 1_555 1_555
C2_43 C3_43 1_555 1_555
C3_43 C4_43 1_555 1_555
C3_43 C11_43 1_555 1_555
C4_43 C5_43 1_555 1_555
C4_43 H4_43 1_555 1_555
C5_43 C6_43 1_555 1_555
C5_43 C10_43 1_555 1_555
C6_43 C7_43 1_555 1_555
C6_43 H6_43 1_555 1_555
C7_43 C8_43 1_555 1_555
C7_43 H7_43 1_555 1_555
C8_43 C9_43 1_555 1_555
C8_43 C14_43 1_555 1_555
C9_43 C10_43 1_555 1_555
C9_43 H9_43 1_555 1_555
C11_43 C12_43 1_555 1_555
C11_43 C13_44 1_555 1_555
C12_43 C13_43 1_555 1_555
C13_43 H13_43 1_555 1_555
C13_43 C11_44 1_555 1_555
C14_43 C15_43 1_555 1_555
C14_43 H14A_43 1_555 1_555
C14_43 H14B_43 1_555 1_555
C15_43 C16_43 1_555 1_555
C15_43 H15A_43 1_555 1_555
C15_43 H15B_43 1_555 1_555
C16_43 C17_43 1_555 1_555
C16_43 H16A_43 1_555 1_555
C16_43 H16B_43 1_555 1_555
C17_43 C18_43 1_555 1_555
C17_43 H17A_43 1_555 1_555
C17_43 H17B_43 1_555 1_555
C18_43 C19_43 1_555 1_555
C18_43 H18A_43 1_555 1_555
C18_43 H18B_43 1_555 1_555
C19_43 C20_43 1_555 1_555
C19_43 H19A_43 1_555 1_555
C19_43 H19B_43 1_555 1_555
C20_43 C21_43 1_555 1_555
C20_43 H20A_43 1_555 1_555
C20_43 H20B_43 1_555 1_555
C21_43 C22_43 1_555 1_555
C21_43 H21A_43 1_555 1_555
C21_43 H21B_43 1_555 1_555
C22_43 C23_43 1_555 1_555
C22_43 H22A_43 1_555 1_555
C22_43 H22B_43 1_555 1_555
C23_43 H23A_43 1_555 1_555
C23_43 H23B_43 1_555 1_555
C23_43 H23C_43 1_555 1_555
S1_44 C2_44 1_555 1_555
S1_44 C12_44 1_555 1_555
C1_44 C2_44 1_555 1_555
C1_44 C10_44 1_555 1_555
C1_44 H1_44 1_555 1_555
C2_44 C3_44 1_555 1_555
C3_44 C4_44 1_555 1_555
C3_44 C11_44 1_555 1_555
C4_44 C5_44 1_555 1_555
C4_44 H4_44 1_555 1_555
C5_44 C6_44 1_555 1_555
C5_44 C10_44 1_555 1_555
C6_44 C7_44 1_555 1_555
C6_44 H6_44 1_555 1_555
C7_44 C8_44 1_555 1_555
C7_44 H7_44 1_555 1_555
C8_44 C9_44 1_555 1_555
C8_44 C14_44 1_555 1_555
C9_44 C10_44 1_555 1_555
C9_44 H9_44 1_555 1_555
C11_44 C12_44 1_555 1_555
C12_44 C13_44 1_555 1_555
C13_44 H13_44 1_555 1_555
C14_44 C15_44 1_555 1_555
C14_44 H14A_44 1_555 1_555
C14_44 H14B_44 1_555 1_555
C15_44 C16_44 1_555 1_555
C15_44 H15A_44 1_555 1_555
C15_44 H15B_44 1_555 1_555
C16_44 C17_44 1_555 1_555
C16_44 H16A_44 1_555 1_555
C16_44 H16B_44 1_555 1_555
C17_44 C18_44 1_555 1_555
C17_44 H17A_44 1_555 1_555
C17_44 H17B_44 1_555 1_555
C18_44 C19_44 1_555 1_555
C18_44 H18A_44 1_555 1_555
C18_44 H18B_44 1_555 1_555
C19_44 C20_44 1_555 1_555
C19_44 H19A_44 1_555 1_555
C19_44 H19B_44 1_555 1_555
C20_44 C21_44 1_555 1_555
C20_44 H20A_44 1_555 1_555
C20_44 H20B_44 1_555 1_555
C21_44 C22_44 1_555 1_555
C21_44 H21A_44 1_555 1_555
C21_44 H21B_44 1_555 1_555
C22_44 C23_44 1_555 1_555
C22_44 H22A_44 1_555 1_555
C22_44 H22B_44 1_555 1_555
C23_44 H23A_44 1_555 1_555
C23_44 H23B_44 1_555 1_555
C23_44 H23C_44 1_555 1_555
S1_45 C2_45 1_555 1_555
S1_45 C12_45 1_555 1_555
C1_45 C2_45 1_555 1_555
C1_45 C10_45 1_555 1_555
C1_45 H1_45 1_555 1_555
C2_45 C3_45 1_555 1_555
C3_45 C4_45 1_555 1_555
C3_45 C11_45 1_555 1_555
C4_45 C5_45 1_555 1_555
C4_45 H4_45 1_555 1_555
C5_45 C6_45 1_555 1_555
C5_45 C10_45 1_555 1_555
C6_45 C7_45 1_555 1_555
C6_45 H6_45 1_555 1_555
C7_45 C8_45 1_555 1_555
C7_45 H7_45 1_555 1_555
C8_45 C9_45 1_555 1_555
C8_45 C14_45 1_555 1_555
C9_45 C10_45 1_555 1_555
C9_45 H9_45 1_555 1_555
C11_45 C12_45 1_555 1_555
C11_45 C13_46 1_555 1_555
C12_45 C13_45 1_555 1_555
C13_45 H13_45 1_555 1_555
C13_45 C11_46 1_555 1_555
C14_45 C15_45 1_555 1_555
C14_45 H14A_45 1_555 1_555
C14_45 H14B_45 1_555 1_555
C15_45 C16_45 1_555 1_555
C15_45 H15A_45 1_555 1_555
C15_45 H15B_45 1_555 1_555
C16_45 C17_45 1_555 1_555
C16_45 H16A_45 1_555 1_555
C16_45 H16B_45 1_555 1_555
C17_45 C18_45 1_555 1_555
C17_45 H17A_45 1_555 1_555
C17_45 H17B_45 1_555 1_555
C18_45 C19_45 1_555 1_555
C18_45 H18A_45 1_555 1_555
C18_45 H18B_45 1_555 1_555
C19_45 C20_45 1_555 1_555
C19_45 H19A_45 1_555 1_555
C19_45 H19B_45 1_555 1_555
C20_45 C21_45 1_555 1_555
C20_45 H20A_45 1_555 1_555
C20_45 H20B_45 1_555 1_555
C21_45 C22_45 1_555 1_555
C21_45 H21A_45 1_555 1_555
C21_45 H21B_45 1_555 1_555
C22_45 C23_45 1_555 1_555
C22_45 H22A_45 1_555 1_555
C22_45 H22B_45 1_555 1_555
C23_45 H23A_45 1_555 1_555
C23_45 H23B_45 1_555 1_555
C23_45 H23C_45 1_555 1_555
S1_46 C2_46 1_555 1_555
S1_46 C12_46 1_555 1_555
C1_46 C2_46 1_555 1_555
C1_46 C10_46 1_555 1_555
C1_46 H1_46 1_555 1_555
C2_46 C3_46 1_555 1_555
C3_46 C4_46 1_555 1_555
C3_46 C11_46 1_555 1_555
C4_46 C5_46 1_555 1_555
C4_46 H4_46 1_555 1_555
C5_46 C6_46 1_555 1_555
C5_46 C10_46 1_555 1_555
C6_46 C7_46 1_555 1_555
C6_46 H6_46 1_555 1_555
C7_46 C8_46 1_555 1_555
C7_46 H7_46 1_555 1_555
C8_46 C9_46 1_555 1_555
C8_46 C14_46 1_555 1_555
C9_46 C10_46 1_555 1_555
C9_46 H9_46 1_555 1_555
C11_46 C12_46 1_555 1_555
C12_46 C13_46 1_555 1_555
C13_46 H13_46 1_555 1_555
C14_46 C15_46 1_555 1_555
C14_46 H14A_46 1_555 1_555
C14_46 H14B_46 1_555 1_555
C15_46 C16_46 1_555 1_555
C15_46 H15A_46 1_555 1_555
C15_46 H15B_46 1_555 1_555
C16_46 C17_46 1_555 1_555
C16_46 H16A_46 1_555 1_555
C16_46 H16B_46 1_555 1_555
C17_46 C18_46 1_555 1_555
C17_46 H17A_46 1_555 1_555
C17_46 H17B_46 1_555 1_555
C18_46 C19_46 1_555 1_555
C18_46 H18A_46 1_555 1_555
C18_46 H18B_46 1_555 1_555
C19_46 C20_46 1_555 1_555
C19_46 H19A_46 1_555 1_555
C19_46 H19B_46 1_555 1_555
C20_46 C21_46 1_555 1_555
C20_46 H20A_46 1_555 1_555
C20_46 H20B_46 1_555 1_555
C21_46 C22_46 1_555 1_555
C21_46 H21A_46 1_555 1_555
C21_46 H21B_46 1_555 1_555
C22_46 C23_46 1_555 1_555
C22_46 H22A_46 1_555 1_555
C22_46 H22B_46 1_555 1_555
C23_46 H23A_46 1_555 1_555
C23_46 H23B_46 1_555 1_555
C23_46 H23C_46 1_555 1_555
S1_47 C2_47 1_555 1_555
S1_47 C12_47 1_555 1_555
C1_47 C2_47 1_555 1_555
C1_47 C10_47 1_555 1_555
C1_47 H1_47 1_555 1_555
C2_47 C3_47 1_555 1_555
C3_47 C4_47 1_555 1_555
C3_47 C11_47 1_555 1_555
C4_47 C5_47 1_555 1_555
C4_47 H4_47 1_555 1_555
C5_47 C6_47 1_555 1_555
C5_47 C10_47 1_555 1_555
C6_47 C7_47 1_555 1_555
C6_47 H6_47 1_555 1_555
C7_47 C8_47 1_555 1_555
C7_47 H7_47 1_555 1_555
C8_47 C9_47 1_555 1_555
C8_47 C14_47 1_555 1_555
C9_47 C10_47 1_555 1_555
C9_47 H9_47 1_555 1_555
C11_47 C12_47 1_555 1_555
C11_47 C13_48 1_555 1_555
C12_47 C13_47 1_555 1_555
C13_47 H13_47 1_555 1_555
C13_47 C11_48 1_555 1_555
C14_47 C15_47 1_555 1_555
C14_47 H14A_47 1_555 1_555
C14_47 H14B_47 1_555 1_555
C15_47 C16_47 1_555 1_555
C15_47 H15A_47 1_555 1_555
C15_47 H15B_47 1_555 1_555
C16_47 C17_47 1_555 1_555
C16_47 H16A_47 1_555 1_555
C16_47 H16B_47 1_555 1_555
C17_47 C18_47 1_555 1_555
C17_47 H17A_47 1_555 1_555
C17_47 H17B_47 1_555 1_555
C18_47 C19_47 1_555 1_555
C18_47 H18A_47 1_555 1_555
C18_47 H18B_47 1_555 1_555
C19_47 C20_47 1_555 1_555
C19_47 H19A_47 1_555 1_555
C19_47 H19B_47 1_555 1_555
C20_47 C21_47 1_555 1_555
C20_47 H20A_47 1_555 1_555
C20_47 H20B_47 1_555 1_555
C21_47 C22_47 1_555 1_555
C21_47 H21A_47 1_555 1_555
C21_47 H21B_47 1_555 1_555
C22_47 C23_47 1_555 1_555
C22_47 H22A_47 1_555 1_555
C22_47 H22B_47 1_555 1_555
C23_47 H23A_47 1_555 1_555
C23_47 H23B_47 1_555 1_555
C23_47 H23C_47 1_555 1_555
S1_48 C2_48 1_555 1_555
S1_48 C12_48 1_555 1_555
C1_48 C2_48 1_555 1_555
C1_48 C10_48 1_555 1_555
C1_48 H1_48 1_555 1_555
C2_48 C3_48 1_555 1_555
C3_48 C4_48 1_555 1_555
C3_48 C11_48 1_555 1_555
C4_48 C5_48 1_555 1_555
C4_48 H4_48 1_555 1_555
C5_48 C6_48 1_555 1_555
C5_48 C10_48 1_555 1_555
C6_48 C7_48 1_555 1_555
C6_48 H6_48 1_555 1_555
C7_48 C8_48 1_555 1_555
C7_48 H7_48 1_555 1_555
C8_48 C9_48 1_555 1_555
C8_48 C14_48 1_555 1_555
C9_48 C10_48 1_555 1_555
C9_48 H9_48 1_555 1_555
C11_48 C12_48 1_555 1_555
C12_48 C13_48 1_555 1_555
C13_48 H13_48 1_555 1_555
C14_48 C15_48 1_555 1_555
C14_48 H14A_48 1_555 1_555
C14_48 H14B_48 1_555 1_555
C15_48 C16_48 1_555 1_555
C15_48 H15A_48 1_555 1_555
C15_48 H15B_48 1_555 1_555
C16_48 C17_48 1_555 1_555
C16_48 H16A_48 1_555 1_555
C16_48 H16B_48 1_555 1_555
C17_48 C18_48 1_555 1_555
C17_48 H17A_48 1_555 1_555
C17_48 H17B_48 1_555 1_555
C18_48 C19_48 1_555 1_555
C18_48 H18A_48 1_555 1_555
C18_48 H18B_48 1_555 1_555
C19_48 C20_48 1_555 1_555
C19_48 H19A_48 1_555 1_555
C19_48 H19B_48 1_555 1_555
C20_48 C21_48 1_555 1_555
C20_48 H20A_48 1_555 1_555
C20_48 H20B_48 1_555 1_555
C21_48 C22_48 1_555 1_555
C21_48 H21A_48 1_555 1_555
C21_48 H21B_48 1_555 1_555
C22_48 C23_48 1_555 1_555
C22_48 H22A_48 1_555 1_555
C22_48 H22B_48 1_555 1_555
C23_48 H23A_48 1_555 1_555
C23_48 H23B_48 1_555 1_555
C23_48 H23C_48 1_555 1_555
S1_49 C2_49 1_555 1_555
S1_49 C12_49 1_555 1_555
C1_49 C2_49 1_555 1_555
C1_49 C10_49 1_555 1_555
C1_49 H1_49 1_555 1_555
C2_49 C3_49 1_555 1_555
C3_49 C4_49 1_555 1_555
C3_49 C11_49 1_555 1_555
C4_49 C5_49 1_555 1_555
C4_49 H4_49 1_555 1_555
C5_49 C6_49 1_555 1_555
C5_49 C10_49 1_555 1_555
C6_49 C7_49 1_555 1_555
C6_49 H6_49 1_555 1_555
C7_49 C8_49 1_555 1_555
C7_49 H7_49 1_555 1_555
C8_49 C9_49 1_555 1_555
C8_49 C14_49 1_555 1_555
C9_49 C10_49 1_555 1_555
C9_49 H9_49 1_555 1_555
C11_49 C12_49 1_555 1_555
C11_49 C13_50 1_555 1_555
C12_49 C13_49 1_555 1_555
C13_49 H13_49 1_555 1_555
C13_49 C11_50 1_555 1_555
C14_49 C15_49 1_555 1_555
C14_49 H14A_49 1_555 1_555
C14_49 H14B_49 1_555 1_555
C15_49 C16_49 1_555 1_555
C15_49 H15A_49 1_555 1_555
C15_49 H15B_49 1_555 1_555
C16_49 C17_49 1_555 1_555
C16_49 H16A_49 1_555 1_555
C16_49 H16B_49 1_555 1_555
C17_49 C18_49 1_555 1_555
C17_49 H17A_49 1_555 1_555
C17_49 H17B_49 1_555 1_555
C18_49 C19_49 1_555 1_555
C18_49 H18A_49 1_555 1_555
C18_49 H18B_49 1_555 1_555
C19_49 C20_49 1_555 1_555
C19_49 H19A_49 1_555 1_555
C19_49 H19B_49 1_555 1_555
C20_49 C21_49 1_555 1_555
C20_49 H20A_49 1_555 1_555
C20_49 H20B_49 1_555 1_555
C21_49 C22_49 1_555 1_555
C21_49 H21A_49 1_555 1_555
C21_49 H21B_49 1_555 1_555
C22_49 C23_49 1_555 1_555
C22_49 H22A_49 1_555 1_555
C22_49 H22B_49 1_555 1_555
C23_49 H23A_49 1_555 1_555
C23_49 H23B_49 1_555 1_555
C23_49 H23C_49 1_555 1_555
S1_50 C2_50 1_555 1_555
S1_50 C12_50 1_555 1_555
C1_50 C2_50 1_555 1_555
C1_50 C10_50 1_555 1_555
C1_50 H1_50 1_555 1_555
C2_50 C3_50 1_555 1_555
C3_50 C4_50 1_555 1_555
C3_50 C11_50 1_555 1_555
C4_50 C5_50 1_555 1_555
C4_50 H4_50 1_555 1_555
C5_50 C6_50 1_555 1_555
C5_50 C10_50 1_555 1_555
C6_50 C7_50 1_555 1_555
C6_50 H6_50 1_555 1_555
C7_50 C8_50 1_555 1_555
C7_50 H7_50 1_555 1_555
C8_50 C9_50 1_555 1_555
C8_50 C14_50 1_555 1_555
C9_50 C10_50 1_555 1_555
C9_50 H9_50 1_555 1_555
C11_50 C12_50 1_555 1_555
C12_50 C13_50 1_555 1_555
C13_50 H13_50 1_555 1_555
C14_50 C15_50 1_555 1_555
C14_50 H14A_50 1_555 1_555
C14_50 H14B_50 1_555 1_555
C15_50 C16_50 1_555 1_555
C15_50 H15A_50 1_555 1_555
C15_50 H15B_50 1_555 1_555
C16_50 C17_50 1_555 1_555
C16_50 H16A_50 1_555 1_555
C16_50 H16B_50 1_555 1_555
C17_50 C18_50 1_555 1_555
C17_50 H17A_50 1_555 1_555
C17_50 H17B_50 1_555 1_555
C18_50 C19_50 1_555 1_555
C18_50 H18A_50 1_555 1_555
C18_50 H18B_50 1_555 1_555
C19_50 C20_50 1_555 1_555
C19_50 H19A_50 1_555 1_555
C19_50 H19B_50 1_555 1_555
C20_50 C21_50 1_555 1_555
C20_50 H20A_50 1_555 1_555
C20_50 H20B_50 1_555 1_555
C21_50 C22_50 1_555 1_555
C21_50 H21A_50 1_555 1_555
C21_50 H21B_50 1_555 1_555
C22_50 C23_50 1_555 1_555
C22_50 H22A_50 1_555 1_555
C22_50 H22B_50 1_555 1_555
C23_50 H23A_50 1_555 1_555
C23_50 H23B_50 1_555 1_555
C23_50 H23C_50 1_555 1_555
S1_51 C2_51 1_555 1_555
S1_51 C12_51 1_555 1_555
C1_51 C2_51 1_555 1_555
C1_51 C10_51 1_555 1_555
C1_51 H1_51 1_555 1_555
C2_51 C3_51 1_555 1_555
C3_51 C4_51 1_555 1_555
C3_51 C11_51 1_555 1_555
C4_51 C5_51 1_555 1_555
C4_51 H4_51 1_555 1_555
C5_51 C6_51 1_555 1_555
C5_51 C10_51 1_555 1_555
C6_51 C7_51 1_555 1_555
C6_51 H6_51 1_555 1_555
C7_51 C8_51 1_555 1_555
C7_51 H7_51 1_555 1_555
C8_51 C9_51 1_555 1_555
C8_51 C14_51 1_555 1_555
C9_51 C10_51 1_555 1_555
C9_51 H9_51 1_555 1_555
C11_51 C12_51 1_555 1_555
C11_51 C13_52 1_555 1_555
C12_51 C13_51 1_555 1_555
C13_51 H13_51 1_555 1_555
C13_51 C11_52 1_555 1_555
C14_51 C15_51 1_555 1_555
C14_51 H14A_51 1_555 1_555
C14_51 H14B_51 1_555 1_555
C15_51 C16_51 1_555 1_555
C15_51 H15A_51 1_555 1_555
C15_51 H15B_51 1_555 1_555
C16_51 C17_51 1_555 1_555
C16_51 H16A_51 1_555 1_555
C16_51 H16B_51 1_555 1_555
C17_51 C18_51 1_555 1_555
C17_51 H17A_51 1_555 1_555
C17_51 H17B_51 1_555 1_555
C18_51 C19_51 1_555 1_555
C18_51 H18A_51 1_555 1_555
C18_51 H18B_51 1_555 1_555
C19_51 C20_51 1_555 1_555
C19_51 H19A_51 1_555 1_555
C19_51 H19B_51 1_555 1_555
C20_51 C21_51 1_555 1_555
C20_51 H20A_51 1_555 1_555
C20_51 H20B_51 1_555 1_555
C21_51 C22_51 1_555 1_555
C21_51 H21A_51 1_555 1_555
C21_51 H21B_51 1_555 1_555
C22_51 C23_51 1_555 1_555
C22_51 H22A_51 1_555 1_555
C22_51 H22B_51 1_555 1_555
C23_51 H23A_51 1_555 1_555
C23_51 H23B_51 1_555 1_555
C23_51 H23C_51 1_555 1_555
S1_52 C2_52 1_555 1_555
S1_52 C12_52 1_555 1_555
C1_52 C2_52 1_555 1_555
C1_52 C10_52 1_555 1_555
C1_52 H1_52 1_555 1_555
C2_52 C3_52 1_555 1_555
C3_52 C4_52 1_555 1_555
C3_52 C11_52 1_555 1_555
C4_52 C5_52 1_555 1_555
C4_52 H4_52 1_555 1_555
C5_52 C6_52 1_555 1_555
C5_52 C10_52 1_555 1_555
C6_52 C7_52 1_555 1_555
C6_52 H6_52 1_555 1_555
C7_52 C8_52 1_555 1_555
C7_52 H7_52 1_555 1_555
C8_52 C9_52 1_555 1_555
C8_52 C14_52 1_555 1_555
C9_52 C10_52 1_555 1_555
C9_52 H9_52 1_555 1_555
C11_52 C12_52 1_555 1_555
C12_52 C13_52 1_555 1_555
C13_52 H13_52 1_555 1_555
C14_52 C15_52 1_555 1_555
C14_52 H14A_52 1_555 1_555
C14_52 H14B_52 1_555 1_555
C15_52 C16_52 1_555 1_555
C15_52 H15A_52 1_555 1_555
C15_52 H15B_52 1_555 1_555
C16_52 C17_52 1_555 1_555
C16_52 H16A_52 1_555 1_555
C16_52 H16B_52 1_555 1_555
C17_52 C18_52 1_555 1_555
C17_52 H17A_52 1_555 1_555
C17_52 H17B_52 1_555 1_555
C18_52 C19_52 1_555 1_555
C18_52 H18A_52 1_555 1_555
C18_52 H18B_52 1_555 1_555
C19_52 C20_52 1_555 1_555
C19_52 H19A_52 1_555 1_555
C19_52 H19B_52 1_555 1_555
C20_52 C21_52 1_555 1_555
C20_52 H20A_52 1_555 1_555
C20_52 H20B_52 1_555 1_555
C21_52 C22_52 1_555 1_555
C21_52 H21A_52 1_555 1_555
C21_52 H21B_52 1_555 1_555
C22_52 C23_52 1_555 1_555
C22_52 H22A_52 1_555 1_555
C22_52 H22B_52 1_555 1_555
C23_52 H23A_52 1_555 1_555
C23_52 H23B_52 1_555 1_555
C23_52 H23C_52 1_555 1_555

#END
